data_00001
_audit_creation_method   'DISCUS'

_data_chemical_name_common 'Ni.cell'

_cell_length_a             56.3680
_cell_length_b             56.3680
_cell_length_c             56.3680
_cell_angle_alpha     90.0000
_cell_angle_beta      90.0000
_cell_angle_gamma     90.0000

_symmetry_space_group_name_H-M   'P1              '

loop_
_atom_site_label
_atom_site_symbol
_atom_site_fract_x
_atom_site_fract_y
_atom_site_fract_z
_atom_site_u_iso_or_equiv
NI1   NI        0.375625    0.281875    0.031875     0.004307
NI2   NI        0.438125    0.281875    0.031875     0.004307
NI3   NI        0.500625    0.281875    0.031875     0.004307
NI4   NI        0.313125    0.344375    0.031875     0.004307
NI5   NI        0.344375    0.313125    0.031875     0.004307
NI6   NI        0.375625    0.344375    0.031875     0.004307
NI7   NI        0.406875    0.313125    0.031875     0.004307
NI8   NI        0.438125    0.344375    0.031875     0.004307
NI9   NI        0.469375    0.313125    0.031875     0.004307
NI10   NI        0.500625    0.344375    0.031875     0.004307
NI11   NI        0.531875    0.313125    0.031875     0.004307
NI12   NI        0.563125    0.344375    0.031875     0.004307
NI13   NI        0.281875    0.375625    0.031875     0.004307
NI14   NI        0.313125    0.406875    0.031875     0.004307
NI15   NI        0.344375    0.375625    0.031875     0.004307
NI16   NI        0.375625    0.406875    0.031875     0.004307
NI17   NI        0.406875    0.375625    0.031875     0.004307
NI18   NI        0.406875    0.406875    0.000625     0.004307
NI19   NI        0.438125    0.375625    0.000625     0.004307
NI20   NI        0.438125    0.406875    0.031875     0.004307
NI21   NI        0.469375    0.375625    0.031875     0.004307
NI22   NI        0.469375    0.406875    0.000625     0.004307
NI23   NI        0.500625    0.406875    0.031875     0.004307
NI24   NI        0.531875    0.375625    0.031875     0.004307
NI25   NI        0.563125    0.406875    0.031875     0.004307
NI26   NI        0.594375    0.375625    0.031875     0.004307
NI27   NI        0.281875    0.438125    0.031875     0.004307
NI28   NI        0.313125    0.469375    0.031875     0.004307
NI29   NI        0.344375    0.438125    0.031875     0.004307
NI30   NI        0.375625    0.438125    0.000625     0.004307
NI31   NI        0.375625    0.469375    0.031875     0.004307
NI32   NI        0.406875    0.438125    0.031875     0.004307
NI33   NI        0.406875    0.469375    0.000625     0.004307
NI34   NI        0.438125    0.438125    0.000625     0.004307
NI35   NI        0.438125    0.469375    0.031875     0.004307
NI36   NI        0.469375    0.438125    0.031875     0.004307
NI37   NI        0.469375    0.469375    0.000625     0.004307
NI38   NI        0.500625    0.438125    0.000625     0.004307
NI39   NI        0.500625    0.469375    0.031875     0.004307
NI40   NI        0.531875    0.438125    0.031875     0.004307
NI41   NI        0.563125    0.469375    0.031875     0.004307
NI42   NI        0.594375    0.438125    0.031875     0.004307
NI43   NI        0.281875    0.500625    0.031875     0.004307
NI44   NI        0.313125    0.531875    0.031875     0.004307
NI45   NI        0.344375    0.500625    0.031875     0.004307
NI46   NI        0.375625    0.531875    0.031875     0.004307
NI47   NI        0.406875    0.500625    0.031875     0.004307
NI48   NI        0.438125    0.500625    0.000625     0.004307
NI49   NI        0.438125    0.531875    0.031875     0.004307
NI50   NI        0.469375    0.500625    0.031875     0.004307
NI51   NI        0.500625    0.531875    0.031875     0.004307
NI52   NI        0.531875    0.500625    0.031875     0.004307
NI53   NI        0.563125    0.531875    0.031875     0.004307
NI54   NI        0.594375    0.500625    0.031875     0.004307
NI55   NI        0.344375    0.563125    0.031875     0.004307
NI56   NI        0.375625    0.594375    0.031875     0.004307
NI57   NI        0.406875    0.563125    0.031875     0.004307
NI58   NI        0.438125    0.594375    0.031875     0.004307
NI59   NI        0.469375    0.563125    0.031875     0.004307
NI60   NI        0.500625    0.594375    0.031875     0.004307
NI61   NI        0.531875    0.563125    0.031875     0.004307
NI62   NI        0.313125    0.219375    0.094375     0.004307
NI63   NI        0.344375    0.188125    0.094375     0.004307
NI64   NI        0.375625    0.219375    0.094375     0.004307
NI65   NI        0.406875    0.188125    0.094375     0.004307
NI66   NI        0.406875    0.219375    0.063125     0.004307
NI67   NI        0.438125    0.219375    0.094375     0.004307
NI68   NI        0.469375    0.188125    0.094375     0.004307
NI69   NI        0.469375    0.219375    0.063125     0.004307
NI70   NI        0.500625    0.219375    0.094375     0.004307
NI71   NI        0.531875    0.188125    0.094375     0.004307
NI72   NI        0.563125    0.219375    0.094375     0.004307
NI73   NI        0.250625    0.281875    0.094375     0.004307
NI74   NI        0.281875    0.250625    0.094375     0.004307
NI75   NI        0.281875    0.281875    0.063125     0.004307
NI76   NI        0.313125    0.250625    0.063125     0.004307
NI77   NI        0.313125    0.281875    0.094375     0.004307
NI78   NI        0.344375    0.250625    0.094375     0.004307
NI79   NI        0.344375    0.281875    0.063125     0.004307
NI80   NI        0.375625    0.250625    0.063125     0.004307
NI81   NI        0.375625    0.281875    0.094375     0.004307
NI82   NI        0.406875    0.250625    0.094375     0.004307
NI83   NI        0.406875    0.281875    0.063125     0.004307
NI84   NI        0.438125    0.250625    0.063125     0.004307
NI85   NI        0.438125    0.281875    0.094375     0.004307
NI86   NI        0.469375    0.250625    0.094375     0.004307
NI87   NI        0.469375    0.281875    0.063125     0.004307
NI88   NI        0.500625    0.250625    0.063125     0.004307
NI89   NI        0.500625    0.281875    0.094375     0.004307
NI90   NI        0.531875    0.250625    0.094375     0.004307
NI91   NI        0.531875    0.281875    0.063125     0.004307
NI92   NI        0.563125    0.250625    0.063125     0.004307
NI93   NI        0.563125    0.281875    0.094375     0.004307
NI94   NI        0.594375    0.250625    0.094375     0.004307
NI95   NI        0.594375    0.281875    0.063125     0.004307
NI96   NI        0.625625    0.281875    0.094375     0.004307
NI97   NI        0.188125    0.344375    0.094375     0.004307
NI98   NI        0.219375    0.313125    0.094375     0.004307
NI99   NI        0.250625    0.313125    0.063125     0.004307
NI100   NI        0.250625    0.344375    0.094375     0.004307
NI101   NI        0.281875    0.313125    0.094375     0.004307
NI102   NI        0.281875    0.344375    0.063125     0.004307
NI103   NI        0.313125    0.313125    0.063125     0.004307
NI104   NI        0.313125    0.344375    0.094375     0.004307
NI105   NI        0.344375    0.313125    0.094375     0.004307
NI106   NI        0.344375    0.344375    0.063125     0.004307
NI107   NI        0.375625    0.313125    0.063125     0.004307
NI108   NI        0.375625    0.344375    0.094375     0.004307
NI109   NI        0.406875    0.313125    0.094375     0.004307
NI110   NI        0.406875    0.344375    0.063125     0.004307
NI111   NI        0.438125    0.313125    0.063125     0.004307
NI112   NI        0.438125    0.344375    0.094375     0.004307
NI113   NI        0.469375    0.313125    0.094375     0.004307
NI114   NI        0.469375    0.344375    0.063125     0.004307
NI115   NI        0.500625    0.313125    0.063125     0.004307
NI116   NI        0.500625    0.344375    0.094375     0.004307
NI117   NI        0.531875    0.313125    0.094375     0.004307
NI118   NI        0.531875    0.344375    0.063125     0.004307
NI119   NI        0.563125    0.313125    0.063125     0.004307
NI120   NI        0.563125    0.344375    0.094375     0.004307
NI121   NI        0.594375    0.313125    0.094375     0.004307
NI122   NI        0.594375    0.344375    0.063125     0.004307
NI123   NI        0.625625    0.313125    0.063125     0.004307
NI124   NI        0.625625    0.344375    0.094375     0.004307
NI125   NI        0.656875    0.313125    0.094375     0.004307
NI126   NI        0.688125    0.344375    0.094375     0.004307
NI127   NI        0.188125    0.406875    0.094375     0.004307
NI128   NI        0.219375    0.375625    0.094375     0.004307
NI129   NI        0.219375    0.406875    0.063125     0.004307
NI130   NI        0.250625    0.375625    0.063125     0.004307
NI131   NI        0.250625    0.406875    0.094375     0.004307
NI132   NI        0.281875    0.375625    0.094375     0.004307
NI133   NI        0.281875    0.406875    0.063125     0.004307
NI134   NI        0.313125    0.375625    0.063125     0.004307
NI135   NI        0.313125    0.406875    0.094375     0.004307
NI136   NI        0.344375    0.375625    0.094375     0.004307
NI137   NI        0.344375    0.406875    0.063125     0.004307
NI138   NI        0.375625    0.375625    0.063125     0.004307
NI139   NI        0.375625    0.406875    0.094375     0.004307
NI140   NI        0.406875    0.375625    0.094375     0.004307
NI141   NI        0.406875    0.406875    0.063125     0.004307
NI142   NI        0.438125    0.375625    0.063125     0.004307
NI143   NI        0.438125    0.406875    0.094375     0.004307
NI144   NI        0.469375    0.375625    0.094375     0.004307
NI145   NI        0.469375    0.406875    0.063125     0.004307
NI146   NI        0.500625    0.375625    0.063125     0.004307
NI147   NI        0.500625    0.406875    0.094375     0.004307
NI148   NI        0.531875    0.375625    0.094375     0.004307
NI149   NI        0.531875    0.406875    0.063125     0.004307
NI150   NI        0.563125    0.375625    0.063125     0.004307
NI151   NI        0.563125    0.406875    0.094375     0.004307
NI152   NI        0.594375    0.375625    0.094375     0.004307
NI153   NI        0.594375    0.406875    0.063125     0.004307
NI154   NI        0.625625    0.375625    0.063125     0.004307
NI155   NI        0.625625    0.406875    0.094375     0.004307
NI156   NI        0.656875    0.375625    0.094375     0.004307
NI157   NI        0.656875    0.406875    0.063125     0.004307
NI158   NI        0.688125    0.406875    0.094375     0.004307
NI159   NI        0.188125    0.469375    0.094375     0.004307
NI160   NI        0.219375    0.438125    0.094375     0.004307
NI161   NI        0.219375    0.469375    0.063125     0.004307
NI162   NI        0.250625    0.438125    0.063125     0.004307
NI163   NI        0.250625    0.469375    0.094375     0.004307
NI164   NI        0.281875    0.438125    0.094375     0.004307
NI165   NI        0.281875    0.469375    0.063125     0.004307
NI166   NI        0.313125    0.438125    0.063125     0.004307
NI167   NI        0.313125    0.469375    0.094375     0.004307
NI168   NI        0.344375    0.438125    0.094375     0.004307
NI169   NI        0.344375    0.469375    0.063125     0.004307
NI170   NI        0.375625    0.438125    0.063125     0.004307
NI171   NI        0.375625    0.469375    0.094375     0.004307
NI172   NI        0.406875    0.438125    0.094375     0.004307
NI173   NI        0.406875    0.469375    0.063125     0.004307
NI174   NI        0.438125    0.438125    0.063125     0.004307
NI175   NI        0.438125    0.469375    0.094375     0.004307
NI176   NI        0.469375    0.438125    0.094375     0.004307
NI177   NI        0.469375    0.469375    0.063125     0.004307
NI178   NI        0.500625    0.438125    0.063125     0.004307
NI179   NI        0.500625    0.469375    0.094375     0.004307
NI180   NI        0.531875    0.438125    0.094375     0.004307
NI181   NI        0.531875    0.469375    0.063125     0.004307
NI182   NI        0.563125    0.438125    0.063125     0.004307
NI183   NI        0.563125    0.469375    0.094375     0.004307
NI184   NI        0.594375    0.438125    0.094375     0.004307
NI185   NI        0.594375    0.469375    0.063125     0.004307
NI186   NI        0.625625    0.438125    0.063125     0.004307
NI187   NI        0.625625    0.469375    0.094375     0.004307
NI188   NI        0.656875    0.438125    0.094375     0.004307
NI189   NI        0.656875    0.469375    0.063125     0.004307
NI190   NI        0.688125    0.469375    0.094375     0.004307
NI191   NI        0.188125    0.531875    0.094375     0.004307
NI192   NI        0.219375    0.500625    0.094375     0.004307
NI193   NI        0.250625    0.500625    0.063125     0.004307
NI194   NI        0.250625    0.531875    0.094375     0.004307
NI195   NI        0.281875    0.500625    0.094375     0.004307
NI196   NI        0.281875    0.531875    0.063125     0.004307
NI197   NI        0.313125    0.500625    0.063125     0.004307
NI198   NI        0.313125    0.531875    0.094375     0.004307
NI199   NI        0.344375    0.500625    0.094375     0.004307
NI200   NI        0.344375    0.531875    0.063125     0.004307
NI201   NI        0.375625    0.500625    0.063125     0.004307
NI202   NI        0.375625    0.531875    0.094375     0.004307
NI203   NI        0.406875    0.500625    0.094375     0.004307
NI204   NI        0.406875    0.531875    0.063125     0.004307
NI205   NI        0.438125    0.500625    0.063125     0.004307
NI206   NI        0.438125    0.531875    0.094375     0.004307
NI207   NI        0.469375    0.500625    0.094375     0.004307
NI208   NI        0.469375    0.531875    0.063125     0.004307
NI209   NI        0.500625    0.500625    0.063125     0.004307
NI210   NI        0.500625    0.531875    0.094375     0.004307
NI211   NI        0.531875    0.500625    0.094375     0.004307
NI212   NI        0.531875    0.531875    0.063125     0.004307
NI213   NI        0.563125    0.500625    0.063125     0.004307
NI214   NI        0.563125    0.531875    0.094375     0.004307
NI215   NI        0.594375    0.500625    0.094375     0.004307
NI216   NI        0.594375    0.531875    0.063125     0.004307
NI217   NI        0.625625    0.500625    0.063125     0.004307
NI218   NI        0.625625    0.531875    0.094375     0.004307
NI219   NI        0.656875    0.500625    0.094375     0.004307
NI220   NI        0.688125    0.531875    0.094375     0.004307
NI221   NI        0.219375    0.563125    0.094375     0.004307
NI222   NI        0.250625    0.563125    0.063125     0.004307
NI223   NI        0.250625    0.594375    0.094375     0.004307
NI224   NI        0.281875    0.563125    0.094375     0.004307
NI225   NI        0.281875    0.594375    0.063125     0.004307
NI226   NI        0.313125    0.563125    0.063125     0.004307
NI227   NI        0.313125    0.594375    0.094375     0.004307
NI228   NI        0.344375    0.563125    0.094375     0.004307
NI229   NI        0.344375    0.594375    0.063125     0.004307
NI230   NI        0.375625    0.563125    0.063125     0.004307
NI231   NI        0.375625    0.594375    0.094375     0.004307
NI232   NI        0.406875    0.563125    0.094375     0.004307
NI233   NI        0.406875    0.594375    0.063125     0.004307
NI234   NI        0.438125    0.563125    0.063125     0.004307
NI235   NI        0.438125    0.594375    0.094375     0.004307
NI236   NI        0.469375    0.563125    0.094375     0.004307
NI237   NI        0.469375    0.594375    0.063125     0.004307
NI238   NI        0.500625    0.563125    0.063125     0.004307
NI239   NI        0.500625    0.594375    0.094375     0.004307
NI240   NI        0.531875    0.563125    0.094375     0.004307
NI241   NI        0.531875    0.594375    0.063125     0.004307
NI242   NI        0.563125    0.563125    0.063125     0.004307
NI243   NI        0.563125    0.594375    0.094375     0.004307
NI244   NI        0.594375    0.563125    0.094375     0.004307
NI245   NI        0.594375    0.594375    0.063125     0.004307
NI246   NI        0.625625    0.563125    0.063125     0.004307
NI247   NI        0.625625    0.594375    0.094375     0.004307
NI248   NI        0.656875    0.563125    0.094375     0.004307
NI249   NI        0.281875    0.625625    0.094375     0.004307
NI250   NI        0.313125    0.625625    0.063125     0.004307
NI251   NI        0.313125    0.656875    0.094375     0.004307
NI252   NI        0.344375    0.625625    0.094375     0.004307
NI253   NI        0.375625    0.625625    0.063125     0.004307
NI254   NI        0.375625    0.656875    0.094375     0.004307
NI255   NI        0.406875    0.625625    0.094375     0.004307
NI256   NI        0.406875    0.656875    0.063125     0.004307
NI257   NI        0.438125    0.625625    0.063125     0.004307
NI258   NI        0.438125    0.656875    0.094375     0.004307
NI259   NI        0.469375    0.625625    0.094375     0.004307
NI260   NI        0.469375    0.656875    0.063125     0.004307
NI261   NI        0.500625    0.625625    0.063125     0.004307
NI262   NI        0.500625    0.656875    0.094375     0.004307
NI263   NI        0.531875    0.625625    0.094375     0.004307
NI264   NI        0.563125    0.625625    0.063125     0.004307
NI265   NI        0.563125    0.656875    0.094375     0.004307
NI266   NI        0.594375    0.625625    0.094375     0.004307
NI267   NI        0.344375    0.688125    0.094375     0.004307
NI268   NI        0.406875    0.688125    0.094375     0.004307
NI269   NI        0.469375    0.688125    0.094375     0.004307
NI270   NI        0.531875    0.688125    0.094375     0.004307
NI271   NI        0.250625    0.156875    0.156875     0.004307
NI272   NI        0.313125    0.156875    0.156875     0.004307
NI273   NI        0.344375    0.125625    0.156875     0.004307
NI274   NI        0.344375    0.156875    0.125625     0.004307
NI275   NI        0.375625    0.156875    0.156875     0.004307
NI276   NI        0.406875    0.125625    0.156875     0.004307
NI277   NI        0.406875    0.156875    0.125625     0.004307
NI278   NI        0.438125    0.125625    0.125625     0.004307
NI279   NI        0.438125    0.156875    0.156875     0.004307
NI280   NI        0.469375    0.125625    0.156875     0.004307
NI281   NI        0.469375    0.156875    0.125625     0.004307
NI282   NI        0.500625    0.156875    0.156875     0.004307
NI283   NI        0.531875    0.125625    0.156875     0.004307
NI284   NI        0.531875    0.156875    0.125625     0.004307
NI285   NI        0.563125    0.156875    0.156875     0.004307
NI286   NI        0.625625    0.156875    0.156875     0.004307
NI287   NI        0.188125    0.219375    0.156875     0.004307
NI288   NI        0.219375    0.188125    0.156875     0.004307
NI289   NI        0.219375    0.219375    0.125625     0.004307
NI290   NI        0.250625    0.188125    0.125625     0.004307
NI291   NI        0.250625    0.219375    0.156875     0.004307
NI292   NI        0.281875    0.188125    0.156875     0.004307
NI293   NI        0.281875    0.219375    0.125625     0.004307
NI294   NI        0.313125    0.188125    0.125625     0.004307
NI295   NI        0.313125    0.219375    0.156875     0.004307
NI296   NI        0.344375    0.188125    0.156875     0.004307
NI297   NI        0.344375    0.219375    0.125625     0.004307
NI298   NI        0.375625    0.188125    0.125625     0.004307
NI299   NI        0.375625    0.219375    0.156875     0.004307
NI300   NI        0.406875    0.188125    0.156875     0.004307
NI301   NI        0.406875    0.219375    0.125625     0.004307
NI302   NI        0.438125    0.188125    0.125625     0.004307
NI303   NI        0.438125    0.219375    0.156875     0.004307
NI304   NI        0.469375    0.188125    0.156875     0.004307
NI305   NI        0.469375    0.219375    0.125625     0.004307
NI306   NI        0.500625    0.188125    0.125625     0.004307
NI307   NI        0.500625    0.219375    0.156875     0.004307
NI308   NI        0.531875    0.188125    0.156875     0.004307
NI309   NI        0.531875    0.219375    0.125625     0.004307
NI310   NI        0.563125    0.188125    0.125625     0.004307
NI311   NI        0.563125    0.219375    0.156875     0.004307
NI312   NI        0.594375    0.188125    0.156875     0.004307
NI313   NI        0.594375    0.219375    0.125625     0.004307
NI314   NI        0.625625    0.188125    0.125625     0.004307
NI315   NI        0.625625    0.219375    0.156875     0.004307
NI316   NI        0.656875    0.188125    0.156875     0.004307
NI317   NI        0.656875    0.219375    0.125625     0.004307
NI318   NI        0.688125    0.219375    0.156875     0.004307
NI319   NI        0.156875    0.250625    0.156875     0.004307
NI320   NI        0.188125    0.250625    0.125625     0.004307
NI321   NI        0.188125    0.281875    0.156875     0.004307
NI322   NI        0.219375    0.250625    0.156875     0.004307
NI323   NI        0.219375    0.281875    0.125625     0.004307
NI324   NI        0.250625    0.250625    0.125625     0.004307
NI325   NI        0.250625    0.281875    0.156875     0.004307
NI326   NI        0.281875    0.250625    0.156875     0.004307
NI327   NI        0.281875    0.281875    0.125625     0.004307
NI328   NI        0.313125    0.250625    0.125625     0.004307
NI329   NI        0.313125    0.281875    0.156875     0.004307
NI330   NI        0.344375    0.250625    0.156875     0.004307
NI331   NI        0.344375    0.281875    0.125625     0.004307
NI332   NI        0.375625    0.250625    0.125625     0.004307
NI333   NI        0.375625    0.281875    0.156875     0.004307
NI334   NI        0.406875    0.250625    0.156875     0.004307
NI335   NI        0.406875    0.281875    0.125625     0.004307
NI336   NI        0.438125    0.250625    0.125625     0.004307
NI337   NI        0.438125    0.281875    0.156875     0.004307
NI338   NI        0.469375    0.250625    0.156875     0.004307
NI339   NI        0.469375    0.281875    0.125625     0.004307
NI340   NI        0.500625    0.250625    0.125625     0.004307
NI341   NI        0.500625    0.281875    0.156875     0.004307
NI342   NI        0.531875    0.250625    0.156875     0.004307
NI343   NI        0.531875    0.281875    0.125625     0.004307
NI344   NI        0.563125    0.250625    0.125625     0.004307
NI345   NI        0.563125    0.281875    0.156875     0.004307
NI346   NI        0.594375    0.250625    0.156875     0.004307
NI347   NI        0.594375    0.281875    0.125625     0.004307
NI348   NI        0.625625    0.250625    0.125625     0.004307
NI349   NI        0.625625    0.281875    0.156875     0.004307
NI350   NI        0.656875    0.250625    0.156875     0.004307
NI351   NI        0.656875    0.281875    0.125625     0.004307
NI352   NI        0.688125    0.250625    0.125625     0.004307
NI353   NI        0.688125    0.281875    0.156875     0.004307
NI354   NI        0.719375    0.250625    0.156875     0.004307
NI355   NI        0.125625    0.344375    0.156875     0.004307
NI356   NI        0.156875    0.313125    0.156875     0.004307
NI357   NI        0.156875    0.344375    0.125625     0.004307
NI358   NI        0.188125    0.313125    0.125625     0.004307
NI359   NI        0.188125    0.344375    0.156875     0.004307
NI360   NI        0.219375    0.313125    0.156875     0.004307
NI361   NI        0.219375    0.344375    0.125625     0.004307
NI362   NI        0.250625    0.313125    0.125625     0.004307
NI363   NI        0.250625    0.344375    0.156875     0.004307
NI364   NI        0.281875    0.313125    0.156875     0.004307
NI365   NI        0.281875    0.344375    0.125625     0.004307
NI366   NI        0.313125    0.313125    0.125625     0.004307
NI367   NI        0.313125    0.344375    0.156875     0.004307
NI368   NI        0.344375    0.313125    0.156875     0.004307
NI369   NI        0.344375    0.344375    0.125625     0.004307
NI370   NI        0.375625    0.313125    0.125625     0.004307
NI371   NI        0.375625    0.344375    0.156875     0.004307
NI372   NI        0.406875    0.313125    0.156875     0.004307
NI373   NI        0.406875    0.344375    0.125625     0.004307
NI374   NI        0.438125    0.313125    0.125625     0.004307
NI375   NI        0.438125    0.344375    0.156875     0.004307
NI376   NI        0.469375    0.313125    0.156875     0.004307
NI377   NI        0.469375    0.344375    0.125625     0.004307
NI378   NI        0.500625    0.313125    0.125625     0.004307
NI379   NI        0.500625    0.344375    0.156875     0.004307
NI380   NI        0.531875    0.313125    0.156875     0.004307
NI381   NI        0.531875    0.344375    0.125625     0.004307
NI382   NI        0.563125    0.313125    0.125625     0.004307
NI383   NI        0.563125    0.344375    0.156875     0.004307
NI384   NI        0.594375    0.313125    0.156875     0.004307
NI385   NI        0.594375    0.344375    0.125625     0.004307
NI386   NI        0.625625    0.313125    0.125625     0.004307
NI387   NI        0.625625    0.344375    0.156875     0.004307
NI388   NI        0.656875    0.313125    0.156875     0.004307
NI389   NI        0.656875    0.344375    0.125625     0.004307
NI390   NI        0.688125    0.313125    0.125625     0.004307
NI391   NI        0.688125    0.344375    0.156875     0.004307
NI392   NI        0.719375    0.313125    0.156875     0.004307
NI393   NI        0.719375    0.344375    0.125625     0.004307
NI394   NI        0.750625    0.344375    0.156875     0.004307
NI395   NI        0.125625    0.406875    0.156875     0.004307
NI396   NI        0.156875    0.375625    0.156875     0.004307
NI397   NI        0.156875    0.406875    0.125625     0.004307
NI398   NI        0.188125    0.375625    0.125625     0.004307
NI399   NI        0.188125    0.406875    0.156875     0.004307
NI400   NI        0.219375    0.375625    0.156875     0.004307
NI401   NI        0.219375    0.406875    0.125625     0.004307
NI402   NI        0.250625    0.375625    0.125625     0.004307
NI403   NI        0.250625    0.406875    0.156875     0.004307
NI404   NI        0.281875    0.375625    0.156875     0.004307
NI405   NI        0.281875    0.406875    0.125625     0.004307
NI406   NI        0.313125    0.375625    0.125625     0.004307
NI407   NI        0.313125    0.406875    0.156875     0.004307
NI408   NI        0.344375    0.375625    0.156875     0.004307
NI409   NI        0.344375    0.406875    0.125625     0.004307
NI410   NI        0.375625    0.375625    0.125625     0.004307
NI411   NI        0.375625    0.406875    0.156875     0.004307
NI412   NI        0.406875    0.375625    0.156875     0.004307
NI413   NI        0.406875    0.406875    0.125625     0.004307
NI414   NI        0.438125    0.375625    0.125625     0.004307
NI415   NI        0.438125    0.406875    0.156875     0.004307
NI416   NI        0.469375    0.375625    0.156875     0.004307
NI417   NI        0.469375    0.406875    0.125625     0.004307
NI418   NI        0.500625    0.375625    0.125625     0.004307
NI419   NI        0.500625    0.406875    0.156875     0.004307
NI420   NI        0.531875    0.375625    0.156875     0.004307
NI421   NI        0.531875    0.406875    0.125625     0.004307
NI422   NI        0.563125    0.375625    0.125625     0.004307
NI423   NI        0.563125    0.406875    0.156875     0.004307
NI424   NI        0.594375    0.375625    0.156875     0.004307
NI425   NI        0.594375    0.406875    0.125625     0.004307
NI426   NI        0.625625    0.375625    0.125625     0.004307
NI427   NI        0.625625    0.406875    0.156875     0.004307
NI428   NI        0.656875    0.375625    0.156875     0.004307
NI429   NI        0.656875    0.406875    0.125625     0.004307
NI430   NI        0.688125    0.375625    0.125625     0.004307
NI431   NI        0.688125    0.406875    0.156875     0.004307
NI432   NI        0.719375    0.375625    0.156875     0.004307
NI433   NI        0.719375    0.406875    0.125625     0.004307
NI434   NI        0.750625    0.406875    0.156875     0.004307
NI435   NI        0.125625    0.438125    0.125625     0.004307
NI436   NI        0.125625    0.469375    0.156875     0.004307
NI437   NI        0.156875    0.438125    0.156875     0.004307
NI438   NI        0.156875    0.469375    0.125625     0.004307
NI439   NI        0.188125    0.438125    0.125625     0.004307
NI440   NI        0.188125    0.469375    0.156875     0.004307
NI441   NI        0.219375    0.438125    0.156875     0.004307
NI442   NI        0.219375    0.469375    0.125625     0.004307
NI443   NI        0.250625    0.438125    0.125625     0.004307
NI444   NI        0.250625    0.469375    0.156875     0.004307
NI445   NI        0.281875    0.438125    0.156875     0.004307
NI446   NI        0.281875    0.469375    0.125625     0.004307
NI447   NI        0.313125    0.438125    0.125625     0.004307
NI448   NI        0.313125    0.469375    0.156875     0.004307
NI449   NI        0.344375    0.438125    0.156875     0.004307
NI450   NI        0.344375    0.469375    0.125625     0.004307
NI451   NI        0.375625    0.438125    0.125625     0.004307
NI452   NI        0.375625    0.469375    0.156875     0.004307
NI453   NI        0.406875    0.438125    0.156875     0.004307
NI454   NI        0.406875    0.469375    0.125625     0.004307
NI455   NI        0.438125    0.438125    0.125625     0.004307
NI456   NI        0.438125    0.469375    0.156875     0.004307
NI457   NI        0.469375    0.438125    0.156875     0.004307
NI458   NI        0.469375    0.469375    0.125625     0.004307
NI459   NI        0.500625    0.438125    0.125625     0.004307
NI460   NI        0.500625    0.469375    0.156875     0.004307
NI461   NI        0.531875    0.438125    0.156875     0.004307
NI462   NI        0.531875    0.469375    0.125625     0.004307
NI463   NI        0.563125    0.438125    0.125625     0.004307
NI464   NI        0.563125    0.469375    0.156875     0.004307
NI465   NI        0.594375    0.438125    0.156875     0.004307
NI466   NI        0.594375    0.469375    0.125625     0.004307
NI467   NI        0.625625    0.438125    0.125625     0.004307
NI468   NI        0.625625    0.469375    0.156875     0.004307
NI469   NI        0.656875    0.438125    0.156875     0.004307
NI470   NI        0.656875    0.469375    0.125625     0.004307
NI471   NI        0.688125    0.438125    0.125625     0.004307
NI472   NI        0.688125    0.469375    0.156875     0.004307
NI473   NI        0.719375    0.438125    0.156875     0.004307
NI474   NI        0.719375    0.469375    0.125625     0.004307
NI475   NI        0.750625    0.438125    0.125625     0.004307
NI476   NI        0.750625    0.469375    0.156875     0.004307
NI477   NI        0.125625    0.531875    0.156875     0.004307
NI478   NI        0.156875    0.500625    0.156875     0.004307
NI479   NI        0.156875    0.531875    0.125625     0.004307
NI480   NI        0.188125    0.500625    0.125625     0.004307
NI481   NI        0.188125    0.531875    0.156875     0.004307
NI482   NI        0.219375    0.500625    0.156875     0.004307
NI483   NI        0.219375    0.531875    0.125625     0.004307
NI484   NI        0.250625    0.500625    0.125625     0.004307
NI485   NI        0.250625    0.531875    0.156875     0.004307
NI486   NI        0.281875    0.500625    0.156875     0.004307
NI487   NI        0.281875    0.531875    0.125625     0.004307
NI488   NI        0.313125    0.500625    0.125625     0.004307
NI489   NI        0.313125    0.531875    0.156875     0.004307
NI490   NI        0.344375    0.500625    0.156875     0.004307
NI491   NI        0.344375    0.531875    0.125625     0.004307
NI492   NI        0.375625    0.500625    0.125625     0.004307
NI493   NI        0.375625    0.531875    0.156875     0.004307
NI494   NI        0.406875    0.500625    0.156875     0.004307
NI495   NI        0.406875    0.531875    0.125625     0.004307
NI496   NI        0.438125    0.500625    0.125625     0.004307
NI497   NI        0.438125    0.531875    0.156875     0.004307
NI498   NI        0.469375    0.500625    0.156875     0.004307
NI499   NI        0.469375    0.531875    0.125625     0.004307
NI500   NI        0.500625    0.500625    0.125625     0.004307
NI501   NI        0.500625    0.531875    0.156875     0.004307
NI502   NI        0.531875    0.500625    0.156875     0.004307
NI503   NI        0.531875    0.531875    0.125625     0.004307
NI504   NI        0.563125    0.500625    0.125625     0.004307
NI505   NI        0.563125    0.531875    0.156875     0.004307
NI506   NI        0.594375    0.500625    0.156875     0.004307
NI507   NI        0.594375    0.531875    0.125625     0.004307
NI508   NI        0.625625    0.500625    0.125625     0.004307
NI509   NI        0.625625    0.531875    0.156875     0.004307
NI510   NI        0.656875    0.500625    0.156875     0.004307
NI511   NI        0.656875    0.531875    0.125625     0.004307
NI512   NI        0.688125    0.500625    0.125625     0.004307
NI513   NI        0.688125    0.531875    0.156875     0.004307
NI514   NI        0.719375    0.500625    0.156875     0.004307
NI515   NI        0.719375    0.531875    0.125625     0.004307
NI516   NI        0.750625    0.531875    0.156875     0.004307
NI517   NI        0.156875    0.563125    0.156875     0.004307
NI518   NI        0.188125    0.563125    0.125625     0.004307
NI519   NI        0.188125    0.594375    0.156875     0.004307
NI520   NI        0.219375    0.563125    0.156875     0.004307
NI521   NI        0.219375    0.594375    0.125625     0.004307
NI522   NI        0.250625    0.563125    0.125625     0.004307
NI523   NI        0.250625    0.594375    0.156875     0.004307
NI524   NI        0.281875    0.563125    0.156875     0.004307
NI525   NI        0.281875    0.594375    0.125625     0.004307
NI526   NI        0.313125    0.563125    0.125625     0.004307
NI527   NI        0.313125    0.594375    0.156875     0.004307
NI528   NI        0.344375    0.563125    0.156875     0.004307
NI529   NI        0.344375    0.594375    0.125625     0.004307
NI530   NI        0.375625    0.563125    0.125625     0.004307
NI531   NI        0.375625    0.594375    0.156875     0.004307
NI532   NI        0.406875    0.563125    0.156875     0.004307
NI533   NI        0.406875    0.594375    0.125625     0.004307
NI534   NI        0.438125    0.563125    0.125625     0.004307
NI535   NI        0.438125    0.594375    0.156875     0.004307
NI536   NI        0.469375    0.563125    0.156875     0.004307
NI537   NI        0.469375    0.594375    0.125625     0.004307
NI538   NI        0.500625    0.563125    0.125625     0.004307
NI539   NI        0.500625    0.594375    0.156875     0.004307
NI540   NI        0.531875    0.563125    0.156875     0.004307
NI541   NI        0.531875    0.594375    0.125625     0.004307
NI542   NI        0.563125    0.563125    0.125625     0.004307
NI543   NI        0.563125    0.594375    0.156875     0.004307
NI544   NI        0.594375    0.563125    0.156875     0.004307
NI545   NI        0.594375    0.594375    0.125625     0.004307
NI546   NI        0.625625    0.563125    0.125625     0.004307
NI547   NI        0.625625    0.594375    0.156875     0.004307
NI548   NI        0.656875    0.563125    0.156875     0.004307
NI549   NI        0.656875    0.594375    0.125625     0.004307
NI550   NI        0.688125    0.563125    0.125625     0.004307
NI551   NI        0.688125    0.594375    0.156875     0.004307
NI552   NI        0.719375    0.563125    0.156875     0.004307
NI553   NI        0.156875    0.625625    0.156875     0.004307
NI554   NI        0.188125    0.625625    0.125625     0.004307
NI555   NI        0.188125    0.656875    0.156875     0.004307
NI556   NI        0.219375    0.625625    0.156875     0.004307
NI557   NI        0.219375    0.656875    0.125625     0.004307
NI558   NI        0.250625    0.625625    0.125625     0.004307
NI559   NI        0.250625    0.656875    0.156875     0.004307
NI560   NI        0.281875    0.625625    0.156875     0.004307
NI561   NI        0.281875    0.656875    0.125625     0.004307
NI562   NI        0.313125    0.625625    0.125625     0.004307
NI563   NI        0.313125    0.656875    0.156875     0.004307
NI564   NI        0.344375    0.625625    0.156875     0.004307
NI565   NI        0.344375    0.656875    0.125625     0.004307
NI566   NI        0.375625    0.625625    0.125625     0.004307
NI567   NI        0.375625    0.656875    0.156875     0.004307
NI568   NI        0.406875    0.625625    0.156875     0.004307
NI569   NI        0.406875    0.656875    0.125625     0.004307
NI570   NI        0.438125    0.625625    0.125625     0.004307
NI571   NI        0.438125    0.656875    0.156875     0.004307
NI572   NI        0.469375    0.625625    0.156875     0.004307
NI573   NI        0.469375    0.656875    0.125625     0.004307
NI574   NI        0.500625    0.625625    0.125625     0.004307
NI575   NI        0.500625    0.656875    0.156875     0.004307
NI576   NI        0.531875    0.625625    0.156875     0.004307
NI577   NI        0.531875    0.656875    0.125625     0.004307
NI578   NI        0.563125    0.625625    0.125625     0.004307
NI579   NI        0.563125    0.656875    0.156875     0.004307
NI580   NI        0.594375    0.625625    0.156875     0.004307
NI581   NI        0.594375    0.656875    0.125625     0.004307
NI582   NI        0.625625    0.625625    0.125625     0.004307
NI583   NI        0.625625    0.656875    0.156875     0.004307
NI584   NI        0.656875    0.625625    0.156875     0.004307
NI585   NI        0.656875    0.656875    0.125625     0.004307
NI586   NI        0.688125    0.625625    0.125625     0.004307
NI587   NI        0.688125    0.656875    0.156875     0.004307
NI588   NI        0.719375    0.625625    0.156875     0.004307
NI589   NI        0.219375    0.688125    0.156875     0.004307
NI590   NI        0.250625    0.688125    0.125625     0.004307
NI591   NI        0.250625    0.719375    0.156875     0.004307
NI592   NI        0.281875    0.688125    0.156875     0.004307
NI593   NI        0.313125    0.688125    0.125625     0.004307
NI594   NI        0.313125    0.719375    0.156875     0.004307
NI595   NI        0.344375    0.688125    0.156875     0.004307
NI596   NI        0.344375    0.719375    0.125625     0.004307
NI597   NI        0.375625    0.688125    0.125625     0.004307
NI598   NI        0.375625    0.719375    0.156875     0.004307
NI599   NI        0.406875    0.688125    0.156875     0.004307
NI600   NI        0.406875    0.719375    0.125625     0.004307
NI601   NI        0.438125    0.688125    0.125625     0.004307
NI602   NI        0.438125    0.719375    0.156875     0.004307
NI603   NI        0.469375    0.688125    0.156875     0.004307
NI604   NI        0.469375    0.719375    0.125625     0.004307
NI605   NI        0.500625    0.688125    0.125625     0.004307
NI606   NI        0.500625    0.719375    0.156875     0.004307
NI607   NI        0.531875    0.688125    0.156875     0.004307
NI608   NI        0.531875    0.719375    0.125625     0.004307
NI609   NI        0.563125    0.688125    0.125625     0.004307
NI610   NI        0.563125    0.719375    0.156875     0.004307
NI611   NI        0.594375    0.688125    0.156875     0.004307
NI612   NI        0.625625    0.688125    0.125625     0.004307
NI613   NI        0.625625    0.719375    0.156875     0.004307
NI614   NI        0.656875    0.688125    0.156875     0.004307
NI615   NI        0.344375    0.750625    0.156875     0.004307
NI616   NI        0.406875    0.750625    0.156875     0.004307
NI617   NI        0.438125    0.750625    0.125625     0.004307
NI618   NI        0.469375    0.750625    0.156875     0.004307
NI619   NI        0.531875    0.750625    0.156875     0.004307
NI620   NI        0.313125    0.094375    0.219375     0.004307
NI621   NI        0.344375    0.094375    0.188125     0.004307
NI622   NI        0.375625    0.094375    0.219375     0.004307
NI623   NI        0.406875    0.063125    0.219375     0.004307
NI624   NI        0.406875    0.094375    0.188125     0.004307
NI625   NI        0.438125    0.094375    0.219375     0.004307
NI626   NI        0.469375    0.063125    0.219375     0.004307
NI627   NI        0.469375    0.094375    0.188125     0.004307
NI628   NI        0.500625    0.094375    0.219375     0.004307
NI629   NI        0.531875    0.094375    0.188125     0.004307
NI630   NI        0.563125    0.094375    0.219375     0.004307
NI631   NI        0.188125    0.156875    0.219375     0.004307
NI632   NI        0.219375    0.125625    0.219375     0.004307
NI633   NI        0.219375    0.156875    0.188125     0.004307
NI634   NI        0.250625    0.125625    0.188125     0.004307
NI635   NI        0.250625    0.156875    0.219375     0.004307
NI636   NI        0.281875    0.125625    0.219375     0.004307
NI637   NI        0.281875    0.156875    0.188125     0.004307
NI638   NI        0.313125    0.125625    0.188125     0.004307
NI639   NI        0.313125    0.156875    0.219375     0.004307
NI640   NI        0.344375    0.125625    0.219375     0.004307
NI641   NI        0.344375    0.156875    0.188125     0.004307
NI642   NI        0.375625    0.125625    0.188125     0.004307
NI643   NI        0.375625    0.156875    0.219375     0.004307
NI644   NI        0.406875    0.125625    0.219375     0.004307
NI645   NI        0.406875    0.156875    0.188125     0.004307
NI646   NI        0.438125    0.125625    0.188125     0.004307
NI647   NI        0.438125    0.156875    0.219375     0.004307
NI648   NI        0.469375    0.125625    0.219375     0.004307
NI649   NI        0.469375    0.156875    0.188125     0.004307
NI650   NI        0.500625    0.125625    0.188125     0.004307
NI651   NI        0.500625    0.156875    0.219375     0.004307
NI652   NI        0.531875    0.125625    0.219375     0.004307
NI653   NI        0.531875    0.156875    0.188125     0.004307
NI654   NI        0.563125    0.125625    0.188125     0.004307
NI655   NI        0.563125    0.156875    0.219375     0.004307
NI656   NI        0.594375    0.125625    0.219375     0.004307
NI657   NI        0.594375    0.156875    0.188125     0.004307
NI658   NI        0.625625    0.125625    0.188125     0.004307
NI659   NI        0.625625    0.156875    0.219375     0.004307
NI660   NI        0.656875    0.125625    0.219375     0.004307
NI661   NI        0.656875    0.156875    0.188125     0.004307
NI662   NI        0.688125    0.156875    0.219375     0.004307
NI663   NI        0.125625    0.219375    0.219375     0.004307
NI664   NI        0.156875    0.188125    0.219375     0.004307
NI665   NI        0.156875    0.219375    0.188125     0.004307
NI666   NI        0.188125    0.188125    0.188125     0.004307
NI667   NI        0.188125    0.219375    0.219375     0.004307
NI668   NI        0.219375    0.188125    0.219375     0.004307
NI669   NI        0.219375    0.219375    0.188125     0.004307
NI670   NI        0.250625    0.188125    0.188125     0.004307
NI671   NI        0.250625    0.219375    0.219375     0.004307
NI672   NI        0.281875    0.188125    0.219375     0.004307
NI673   NI        0.281875    0.219375    0.188125     0.004307
NI674   NI        0.313125    0.188125    0.188125     0.004307
NI675   NI        0.313125    0.219375    0.219375     0.004307
NI676   NI        0.344375    0.188125    0.219375     0.004307
NI677   NI        0.344375    0.219375    0.188125     0.004307
NI678   NI        0.375625    0.188125    0.188125     0.004307
NI679   NI        0.375625    0.219375    0.219375     0.004307
NI680   NI        0.406875    0.188125    0.219375     0.004307
NI681   NI        0.406875    0.219375    0.188125     0.004307
NI682   NI        0.438125    0.188125    0.188125     0.004307
NI683   NI        0.438125    0.219375    0.219375     0.004307
NI684   NI        0.469375    0.188125    0.219375     0.004307
NI685   NI        0.469375    0.219375    0.188125     0.004307
NI686   NI        0.500625    0.188125    0.188125     0.004307
NI687   NI        0.500625    0.219375    0.219375     0.004307
NI688   NI        0.531875    0.188125    0.219375     0.004307
NI689   NI        0.531875    0.219375    0.188125     0.004307
NI690   NI        0.563125    0.188125    0.188125     0.004307
NI691   NI        0.563125    0.219375    0.219375     0.004307
NI692   NI        0.594375    0.188125    0.219375     0.004307
NI693   NI        0.594375    0.219375    0.188125     0.004307
NI694   NI        0.625625    0.188125    0.188125     0.004307
NI695   NI        0.625625    0.219375    0.219375     0.004307
NI696   NI        0.656875    0.188125    0.219375     0.004307
NI697   NI        0.656875    0.219375    0.188125     0.004307
NI698   NI        0.688125    0.188125    0.188125     0.004307
NI699   NI        0.688125    0.219375    0.219375     0.004307
NI700   NI        0.719375    0.188125    0.219375     0.004307
NI701   NI        0.719375    0.219375    0.188125     0.004307
NI702   NI        0.750625    0.219375    0.219375     0.004307
NI703   NI        0.125625    0.250625    0.188125     0.004307
NI704   NI        0.125625    0.281875    0.219375     0.004307
NI705   NI        0.156875    0.250625    0.219375     0.004307
NI706   NI        0.156875    0.281875    0.188125     0.004307
NI707   NI        0.188125    0.250625    0.188125     0.004307
NI708   NI        0.188125    0.281875    0.219375     0.004307
NI709   NI        0.219375    0.250625    0.219375     0.004307
NI710   NI        0.219375    0.281875    0.188125     0.004307
NI711   NI        0.250625    0.250625    0.188125     0.004307
NI712   NI        0.250625    0.281875    0.219375     0.004307
NI713   NI        0.281875    0.250625    0.219375     0.004307
NI714   NI        0.281875    0.281875    0.188125     0.004307
NI715   NI        0.313125    0.250625    0.188125     0.004307
NI716   NI        0.313125    0.281875    0.219375     0.004307
NI717   NI        0.344375    0.250625    0.219375     0.004307
NI718   NI        0.344375    0.281875    0.188125     0.004307
NI719   NI        0.375625    0.250625    0.188125     0.004307
NI720   NI        0.375625    0.281875    0.219375     0.004307
NI721   NI        0.406875    0.250625    0.219375     0.004307
NI722   NI        0.406875    0.281875    0.188125     0.004307
NI723   NI        0.438125    0.250625    0.188125     0.004307
NI724   NI        0.438125    0.281875    0.219375     0.004307
NI725   NI        0.469375    0.250625    0.219375     0.004307
NI726   NI        0.469375    0.281875    0.188125     0.004307
NI727   NI        0.500625    0.250625    0.188125     0.004307
NI728   NI        0.500625    0.281875    0.219375     0.004307
NI729   NI        0.531875    0.250625    0.219375     0.004307
NI730   NI        0.531875    0.281875    0.188125     0.004307
NI731   NI        0.563125    0.250625    0.188125     0.004307
NI732   NI        0.563125    0.281875    0.219375     0.004307
NI733   NI        0.594375    0.250625    0.219375     0.004307
NI734   NI        0.594375    0.281875    0.188125     0.004307
NI735   NI        0.625625    0.250625    0.188125     0.004307
NI736   NI        0.625625    0.281875    0.219375     0.004307
NI737   NI        0.656875    0.250625    0.219375     0.004307
NI738   NI        0.656875    0.281875    0.188125     0.004307
NI739   NI        0.688125    0.250625    0.188125     0.004307
NI740   NI        0.688125    0.281875    0.219375     0.004307
NI741   NI        0.719375    0.250625    0.219375     0.004307
NI742   NI        0.719375    0.281875    0.188125     0.004307
NI743   NI        0.750625    0.250625    0.188125     0.004307
NI744   NI        0.750625    0.281875    0.219375     0.004307
NI745   NI        0.094375    0.313125    0.219375     0.004307
NI746   NI        0.094375    0.344375    0.188125     0.004307
NI747   NI        0.125625    0.313125    0.188125     0.004307
NI748   NI        0.125625    0.344375    0.219375     0.004307
NI749   NI        0.156875    0.313125    0.219375     0.004307
NI750   NI        0.156875    0.344375    0.188125     0.004307
NI751   NI        0.188125    0.313125    0.188125     0.004307
NI752   NI        0.188125    0.344375    0.219375     0.004307
NI753   NI        0.219375    0.313125    0.219375     0.004307
NI754   NI        0.219375    0.344375    0.188125     0.004307
NI755   NI        0.250625    0.313125    0.188125     0.004307
NI756   NI        0.250625    0.344375    0.219375     0.004307
NI757   NI        0.281875    0.313125    0.219375     0.004307
NI758   NI        0.281875    0.344375    0.188125     0.004307
NI759   NI        0.313125    0.313125    0.188125     0.004307
NI760   NI        0.313125    0.344375    0.219375     0.004307
NI761   NI        0.344375    0.313125    0.219375     0.004307
NI762   NI        0.344375    0.344375    0.188125     0.004307
NI763   NI        0.375625    0.313125    0.188125     0.004307
NI764   NI        0.375625    0.344375    0.219375     0.004307
NI765   NI        0.406875    0.313125    0.219375     0.004307
NI766   NI        0.406875    0.344375    0.188125     0.004307
NI767   NI        0.438125    0.313125    0.188125     0.004307
NI768   NI        0.438125    0.344375    0.219375     0.004307
NI769   NI        0.469375    0.313125    0.219375     0.004307
NI770   NI        0.469375    0.344375    0.188125     0.004307
NI771   NI        0.500625    0.313125    0.188125     0.004307
NI772   NI        0.500625    0.344375    0.219375     0.004307
NI773   NI        0.531875    0.313125    0.219375     0.004307
NI774   NI        0.531875    0.344375    0.188125     0.004307
NI775   NI        0.563125    0.313125    0.188125     0.004307
NI776   NI        0.563125    0.344375    0.219375     0.004307
NI777   NI        0.594375    0.313125    0.219375     0.004307
NI778   NI        0.594375    0.344375    0.188125     0.004307
NI779   NI        0.625625    0.313125    0.188125     0.004307
NI780   NI        0.625625    0.344375    0.219375     0.004307
NI781   NI        0.656875    0.313125    0.219375     0.004307
NI782   NI        0.656875    0.344375    0.188125     0.004307
NI783   NI        0.688125    0.313125    0.188125     0.004307
NI784   NI        0.688125    0.344375    0.219375     0.004307
NI785   NI        0.719375    0.313125    0.219375     0.004307
NI786   NI        0.719375    0.344375    0.188125     0.004307
NI787   NI        0.750625    0.313125    0.188125     0.004307
NI788   NI        0.750625    0.344375    0.219375     0.004307
NI789   NI        0.781875    0.313125    0.219375     0.004307
NI790   NI        0.781875    0.344375    0.188125     0.004307
NI791   NI        0.063125    0.406875    0.219375     0.004307
NI792   NI        0.094375    0.375625    0.219375     0.004307
NI793   NI        0.094375    0.406875    0.188125     0.004307
NI794   NI        0.125625    0.375625    0.188125     0.004307
NI795   NI        0.125625    0.406875    0.219375     0.004307
NI796   NI        0.156875    0.375625    0.219375     0.004307
NI797   NI        0.156875    0.406875    0.188125     0.004307
NI798   NI        0.188125    0.375625    0.188125     0.004307
NI799   NI        0.188125    0.406875    0.219375     0.004307
NI800   NI        0.219375    0.375625    0.219375     0.004307
NI801   NI        0.219375    0.406875    0.188125     0.004307
NI802   NI        0.250625    0.375625    0.188125     0.004307
NI803   NI        0.250625    0.406875    0.219375     0.004307
NI804   NI        0.281875    0.375625    0.219375     0.004307
NI805   NI        0.281875    0.406875    0.188125     0.004307
NI806   NI        0.313125    0.375625    0.188125     0.004307
NI807   NI        0.313125    0.406875    0.219375     0.004307
NI808   NI        0.344375    0.375625    0.219375     0.004307
NI809   NI        0.344375    0.406875    0.188125     0.004307
NI810   NI        0.375625    0.375625    0.188125     0.004307
NI811   NI        0.375625    0.406875    0.219375     0.004307
NI812   NI        0.406875    0.375625    0.219375     0.004307
NI813   NI        0.406875    0.406875    0.188125     0.004307
NI814   NI        0.438125    0.375625    0.188125     0.004307
NI815   NI        0.438125    0.406875    0.219375     0.004307
NI816   NI        0.469375    0.375625    0.219375     0.004307
NI817   NI        0.469375    0.406875    0.188125     0.004307
NI818   NI        0.500625    0.375625    0.188125     0.004307
NI819   NI        0.500625    0.406875    0.219375     0.004307
NI820   NI        0.531875    0.375625    0.219375     0.004307
NI821   NI        0.531875    0.406875    0.188125     0.004307
NI822   NI        0.563125    0.375625    0.188125     0.004307
NI823   NI        0.563125    0.406875    0.219375     0.004307
NI824   NI        0.594375    0.375625    0.219375     0.004307
NI825   NI        0.594375    0.406875    0.188125     0.004307
NI826   NI        0.625625    0.375625    0.188125     0.004307
NI827   NI        0.625625    0.406875    0.219375     0.004307
NI828   NI        0.656875    0.375625    0.219375     0.004307
NI829   NI        0.656875    0.406875    0.188125     0.004307
NI830   NI        0.688125    0.375625    0.188125     0.004307
NI831   NI        0.688125    0.406875    0.219375     0.004307
NI832   NI        0.719375    0.375625    0.219375     0.004307
NI833   NI        0.719375    0.406875    0.188125     0.004307
NI834   NI        0.750625    0.375625    0.188125     0.004307
NI835   NI        0.750625    0.406875    0.219375     0.004307
NI836   NI        0.781875    0.375625    0.219375     0.004307
NI837   NI        0.781875    0.406875    0.188125     0.004307
NI838   NI        0.813125    0.406875    0.219375     0.004307
NI839   NI        0.063125    0.469375    0.219375     0.004307
NI840   NI        0.094375    0.438125    0.219375     0.004307
NI841   NI        0.094375    0.469375    0.188125     0.004307
NI842   NI        0.125625    0.438125    0.188125     0.004307
NI843   NI        0.125625    0.469375    0.219375     0.004307
NI844   NI        0.156875    0.438125    0.219375     0.004307
NI845   NI        0.156875    0.469375    0.188125     0.004307
NI846   NI        0.188125    0.438125    0.188125     0.004307
NI847   NI        0.188125    0.469375    0.219375     0.004307
NI848   NI        0.219375    0.438125    0.219375     0.004307
NI849   NI        0.219375    0.469375    0.188125     0.004307
NI850   NI        0.250625    0.438125    0.188125     0.004307
NI851   NI        0.250625    0.469375    0.219375     0.004307
NI852   NI        0.281875    0.438125    0.219375     0.004307
NI853   NI        0.281875    0.469375    0.188125     0.004307
NI854   NI        0.313125    0.438125    0.188125     0.004307
NI855   NI        0.313125    0.469375    0.219375     0.004307
NI856   NI        0.344375    0.438125    0.219375     0.004307
NI857   NI        0.344375    0.469375    0.188125     0.004307
NI858   NI        0.375625    0.438125    0.188125     0.004307
NI859   NI        0.375625    0.469375    0.219375     0.004307
NI860   NI        0.406875    0.438125    0.219375     0.004307
NI861   NI        0.406875    0.469375    0.188125     0.004307
NI862   NI        0.438125    0.438125    0.188125     0.004307
NI863   NI        0.438125    0.469375    0.219375     0.004307
NI864   NI        0.469375    0.438125    0.219375     0.004307
NI865   NI        0.469375    0.469375    0.188125     0.004307
NI866   NI        0.500625    0.438125    0.188125     0.004307
NI867   NI        0.500625    0.469375    0.219375     0.004307
NI868   NI        0.531875    0.438125    0.219375     0.004307
NI869   NI        0.531875    0.469375    0.188125     0.004307
NI870   NI        0.563125    0.438125    0.188125     0.004307
NI871   NI        0.563125    0.469375    0.219375     0.004307
NI872   NI        0.594375    0.438125    0.219375     0.004307
NI873   NI        0.594375    0.469375    0.188125     0.004307
NI874   NI        0.625625    0.438125    0.188125     0.004307
NI875   NI        0.625625    0.469375    0.219375     0.004307
NI876   NI        0.656875    0.438125    0.219375     0.004307
NI877   NI        0.656875    0.469375    0.188125     0.004307
NI878   NI        0.688125    0.438125    0.188125     0.004307
NI879   NI        0.688125    0.469375    0.219375     0.004307
NI880   NI        0.719375    0.438125    0.219375     0.004307
NI881   NI        0.719375    0.469375    0.188125     0.004307
NI882   NI        0.750625    0.438125    0.188125     0.004307
NI883   NI        0.750625    0.469375    0.219375     0.004307
NI884   NI        0.781875    0.438125    0.219375     0.004307
NI885   NI        0.781875    0.469375    0.188125     0.004307
NI886   NI        0.813125    0.469375    0.219375     0.004307
NI887   NI        0.094375    0.500625    0.219375     0.004307
NI888   NI        0.094375    0.531875    0.188125     0.004307
NI889   NI        0.125625    0.500625    0.188125     0.004307
NI890   NI        0.125625    0.531875    0.219375     0.004307
NI891   NI        0.156875    0.500625    0.219375     0.004307
NI892   NI        0.156875    0.531875    0.188125     0.004307
NI893   NI        0.188125    0.500625    0.188125     0.004307
NI894   NI        0.188125    0.531875    0.219375     0.004307
NI895   NI        0.219375    0.500625    0.219375     0.004307
NI896   NI        0.219375    0.531875    0.188125     0.004307
NI897   NI        0.250625    0.500625    0.188125     0.004307
NI898   NI        0.250625    0.531875    0.219375     0.004307
NI899   NI        0.281875    0.500625    0.219375     0.004307
NI900   NI        0.281875    0.531875    0.188125     0.004307
NI901   NI        0.313125    0.500625    0.188125     0.004307
NI902   NI        0.313125    0.531875    0.219375     0.004307
NI903   NI        0.344375    0.500625    0.219375     0.004307
NI904   NI        0.344375    0.531875    0.188125     0.004307
NI905   NI        0.375625    0.500625    0.188125     0.004307
NI906   NI        0.375625    0.531875    0.219375     0.004307
NI907   NI        0.406875    0.500625    0.219375     0.004307
NI908   NI        0.406875    0.531875    0.188125     0.004307
NI909   NI        0.438125    0.500625    0.188125     0.004307
NI910   NI        0.438125    0.531875    0.219375     0.004307
NI911   NI        0.469375    0.500625    0.219375     0.004307
NI912   NI        0.469375    0.531875    0.188125     0.004307
NI913   NI        0.500625    0.500625    0.188125     0.004307
NI914   NI        0.500625    0.531875    0.219375     0.004307
NI915   NI        0.531875    0.500625    0.219375     0.004307
NI916   NI        0.531875    0.531875    0.188125     0.004307
NI917   NI        0.563125    0.500625    0.188125     0.004307
NI918   NI        0.563125    0.531875    0.219375     0.004307
NI919   NI        0.594375    0.500625    0.219375     0.004307
NI920   NI        0.594375    0.531875    0.188125     0.004307
NI921   NI        0.625625    0.500625    0.188125     0.004307
NI922   NI        0.625625    0.531875    0.219375     0.004307
NI923   NI        0.656875    0.500625    0.219375     0.004307
NI924   NI        0.656875    0.531875    0.188125     0.004307
NI925   NI        0.688125    0.500625    0.188125     0.004307
NI926   NI        0.688125    0.531875    0.219375     0.004307
NI927   NI        0.719375    0.500625    0.219375     0.004307
NI928   NI        0.719375    0.531875    0.188125     0.004307
NI929   NI        0.750625    0.500625    0.188125     0.004307
NI930   NI        0.750625    0.531875    0.219375     0.004307
NI931   NI        0.781875    0.500625    0.219375     0.004307
NI932   NI        0.781875    0.531875    0.188125     0.004307
NI933   NI        0.094375    0.563125    0.219375     0.004307
NI934   NI        0.125625    0.563125    0.188125     0.004307
NI935   NI        0.125625    0.594375    0.219375     0.004307
NI936   NI        0.156875    0.563125    0.219375     0.004307
NI937   NI        0.156875    0.594375    0.188125     0.004307
NI938   NI        0.188125    0.563125    0.188125     0.004307
NI939   NI        0.188125    0.594375    0.219375     0.004307
NI940   NI        0.219375    0.563125    0.219375     0.004307
NI941   NI        0.219375    0.594375    0.188125     0.004307
NI942   NI        0.250625    0.563125    0.188125     0.004307
NI943   NI        0.250625    0.594375    0.219375     0.004307
NI944   NI        0.281875    0.563125    0.219375     0.004307
NI945   NI        0.281875    0.594375    0.188125     0.004307
NI946   NI        0.313125    0.563125    0.188125     0.004307
NI947   NI        0.313125    0.594375    0.219375     0.004307
NI948   NI        0.344375    0.563125    0.219375     0.004307
NI949   NI        0.344375    0.594375    0.188125     0.004307
NI950   NI        0.375625    0.563125    0.188125     0.004307
NI951   NI        0.375625    0.594375    0.219375     0.004307
NI952   NI        0.406875    0.563125    0.219375     0.004307
NI953   NI        0.406875    0.594375    0.188125     0.004307
NI954   NI        0.438125    0.563125    0.188125     0.004307
NI955   NI        0.438125    0.594375    0.219375     0.004307
NI956   NI        0.469375    0.563125    0.219375     0.004307
NI957   NI        0.469375    0.594375    0.188125     0.004307
NI958   NI        0.500625    0.563125    0.188125     0.004307
NI959   NI        0.500625    0.594375    0.219375     0.004307
NI960   NI        0.531875    0.563125    0.219375     0.004307
NI961   NI        0.531875    0.594375    0.188125     0.004307
NI962   NI        0.563125    0.563125    0.188125     0.004307
NI963   NI        0.563125    0.594375    0.219375     0.004307
NI964   NI        0.594375    0.563125    0.219375     0.004307
NI965   NI        0.594375    0.594375    0.188125     0.004307
NI966   NI        0.625625    0.563125    0.188125     0.004307
NI967   NI        0.625625    0.594375    0.219375     0.004307
NI968   NI        0.656875    0.563125    0.219375     0.004307
NI969   NI        0.656875    0.594375    0.188125     0.004307
NI970   NI        0.688125    0.563125    0.188125     0.004307
NI971   NI        0.688125    0.594375    0.219375     0.004307
NI972   NI        0.719375    0.563125    0.219375     0.004307
NI973   NI        0.719375    0.594375    0.188125     0.004307
NI974   NI        0.750625    0.563125    0.188125     0.004307
NI975   NI        0.750625    0.594375    0.219375     0.004307
NI976   NI        0.781875    0.563125    0.219375     0.004307
NI977   NI        0.125625    0.625625    0.188125     0.004307
NI978   NI        0.125625    0.656875    0.219375     0.004307
NI979   NI        0.156875    0.625625    0.219375     0.004307
NI980   NI        0.156875    0.656875    0.188125     0.004307
NI981   NI        0.188125    0.625625    0.188125     0.004307
NI982   NI        0.188125    0.656875    0.219375     0.004307
NI983   NI        0.219375    0.625625    0.219375     0.004307
NI984   NI        0.219375    0.656875    0.188125     0.004307
NI985   NI        0.250625    0.625625    0.188125     0.004307
NI986   NI        0.250625    0.656875    0.219375     0.004307
NI987   NI        0.281875    0.625625    0.219375     0.004307
NI988   NI        0.281875    0.656875    0.188125     0.004307
NI989   NI        0.313125    0.625625    0.188125     0.004307
NI990   NI        0.313125    0.656875    0.219375     0.004307
NI991   NI        0.344375    0.625625    0.219375     0.004307
NI992   NI        0.344375    0.656875    0.188125     0.004307
NI993   NI        0.375625    0.625625    0.188125     0.004307
NI994   NI        0.375625    0.656875    0.219375     0.004307
NI995   NI        0.406875    0.625625    0.219375     0.004307
NI996   NI        0.406875    0.656875    0.188125     0.004307
NI997   NI        0.438125    0.625625    0.188125     0.004307
NI998   NI        0.438125    0.656875    0.219375     0.004307
NI999   NI        0.469375    0.625625    0.219375     0.004307
NI1000   NI        0.469375    0.656875    0.188125     0.004307
NI1001   NI        0.500625    0.625625    0.188125     0.004307
NI1002   NI        0.500625    0.656875    0.219375     0.004307
NI1003   NI        0.531875    0.625625    0.219375     0.004307
NI1004   NI        0.531875    0.656875    0.188125     0.004307
NI1005   NI        0.563125    0.625625    0.188125     0.004307
NI1006   NI        0.563125    0.656875    0.219375     0.004307
NI1007   NI        0.594375    0.625625    0.219375     0.004307
NI1008   NI        0.594375    0.656875    0.188125     0.004307
NI1009   NI        0.625625    0.625625    0.188125     0.004307
NI1010   NI        0.625625    0.656875    0.219375     0.004307
NI1011   NI        0.656875    0.625625    0.219375     0.004307
NI1012   NI        0.656875    0.656875    0.188125     0.004307
NI1013   NI        0.688125    0.625625    0.188125     0.004307
NI1014   NI        0.688125    0.656875    0.219375     0.004307
NI1015   NI        0.719375    0.625625    0.219375     0.004307
NI1016   NI        0.719375    0.656875    0.188125     0.004307
NI1017   NI        0.750625    0.625625    0.188125     0.004307
NI1018   NI        0.750625    0.656875    0.219375     0.004307
NI1019   NI        0.156875    0.688125    0.219375     0.004307
NI1020   NI        0.188125    0.688125    0.188125     0.004307
NI1021   NI        0.188125    0.719375    0.219375     0.004307
NI1022   NI        0.219375    0.688125    0.219375     0.004307
NI1023   NI        0.219375    0.719375    0.188125     0.004307
NI1024   NI        0.250625    0.688125    0.188125     0.004307
NI1025   NI        0.250625    0.719375    0.219375     0.004307
NI1026   NI        0.281875    0.688125    0.219375     0.004307
NI1027   NI        0.281875    0.719375    0.188125     0.004307
NI1028   NI        0.313125    0.688125    0.188125     0.004307
NI1029   NI        0.313125    0.719375    0.219375     0.004307
NI1030   NI        0.344375    0.688125    0.219375     0.004307
NI1031   NI        0.344375    0.719375    0.188125     0.004307
NI1032   NI        0.375625    0.688125    0.188125     0.004307
NI1033   NI        0.375625    0.719375    0.219375     0.004307
NI1034   NI        0.406875    0.688125    0.219375     0.004307
NI1035   NI        0.406875    0.719375    0.188125     0.004307
NI1036   NI        0.438125    0.688125    0.188125     0.004307
NI1037   NI        0.438125    0.719375    0.219375     0.004307
NI1038   NI        0.469375    0.688125    0.219375     0.004307
NI1039   NI        0.469375    0.719375    0.188125     0.004307
NI1040   NI        0.500625    0.688125    0.188125     0.004307
NI1041   NI        0.500625    0.719375    0.219375     0.004307
NI1042   NI        0.531875    0.688125    0.219375     0.004307
NI1043   NI        0.531875    0.719375    0.188125     0.004307
NI1044   NI        0.563125    0.688125    0.188125     0.004307
NI1045   NI        0.563125    0.719375    0.219375     0.004307
NI1046   NI        0.594375    0.688125    0.219375     0.004307
NI1047   NI        0.594375    0.719375    0.188125     0.004307
NI1048   NI        0.625625    0.688125    0.188125     0.004307
NI1049   NI        0.625625    0.719375    0.219375     0.004307
NI1050   NI        0.656875    0.688125    0.219375     0.004307
NI1051   NI        0.656875    0.719375    0.188125     0.004307
NI1052   NI        0.688125    0.688125    0.188125     0.004307
NI1053   NI        0.688125    0.719375    0.219375     0.004307
NI1054   NI        0.719375    0.688125    0.219375     0.004307
NI1055   NI        0.219375    0.750625    0.219375     0.004307
NI1056   NI        0.250625    0.750625    0.188125     0.004307
NI1057   NI        0.281875    0.750625    0.219375     0.004307
NI1058   NI        0.313125    0.750625    0.188125     0.004307
NI1059   NI        0.313125    0.781875    0.219375     0.004307
NI1060   NI        0.344375    0.750625    0.219375     0.004307
NI1061   NI        0.344375    0.781875    0.188125     0.004307
NI1062   NI        0.375625    0.750625    0.188125     0.004307
NI1063   NI        0.375625    0.781875    0.219375     0.004307
NI1064   NI        0.406875    0.750625    0.219375     0.004307
NI1065   NI        0.406875    0.781875    0.188125     0.004307
NI1066   NI        0.438125    0.750625    0.188125     0.004307
NI1067   NI        0.438125    0.781875    0.219375     0.004307
NI1068   NI        0.469375    0.750625    0.219375     0.004307
NI1069   NI        0.469375    0.781875    0.188125     0.004307
NI1070   NI        0.500625    0.750625    0.188125     0.004307
NI1071   NI        0.500625    0.781875    0.219375     0.004307
NI1072   NI        0.531875    0.750625    0.219375     0.004307
NI1073   NI        0.531875    0.781875    0.188125     0.004307
NI1074   NI        0.563125    0.750625    0.188125     0.004307
NI1075   NI        0.563125    0.781875    0.219375     0.004307
NI1076   NI        0.594375    0.750625    0.219375     0.004307
NI1077   NI        0.625625    0.750625    0.188125     0.004307
NI1078   NI        0.656875    0.750625    0.219375     0.004307
NI1079   NI        0.406875    0.813125    0.219375     0.004307
NI1080   NI        0.469375    0.813125    0.219375     0.004307
NI1081   NI        0.375625    0.031875    0.281875     0.004307
NI1082   NI        0.438125    0.031875    0.281875     0.004307
NI1083   NI        0.500625    0.031875    0.281875     0.004307
NI1084   NI        0.250625    0.094375    0.281875     0.004307
NI1085   NI        0.281875    0.063125    0.281875     0.004307
NI1086   NI        0.281875    0.094375    0.250625     0.004307
NI1087   NI        0.313125    0.063125    0.250625     0.004307
NI1088   NI        0.313125    0.094375    0.281875     0.004307
NI1089   NI        0.344375    0.063125    0.281875     0.004307
NI1090   NI        0.344375    0.094375    0.250625     0.004307
NI1091   NI        0.375625    0.063125    0.250625     0.004307
NI1092   NI        0.375625    0.094375    0.281875     0.004307
NI1093   NI        0.406875    0.063125    0.281875     0.004307
NI1094   NI        0.406875    0.094375    0.250625     0.004307
NI1095   NI        0.438125    0.063125    0.250625     0.004307
NI1096   NI        0.438125    0.094375    0.281875     0.004307
NI1097   NI        0.469375    0.063125    0.281875     0.004307
NI1098   NI        0.469375    0.094375    0.250625     0.004307
NI1099   NI        0.500625    0.063125    0.250625     0.004307
NI1100   NI        0.500625    0.094375    0.281875     0.004307
NI1101   NI        0.531875    0.063125    0.281875     0.004307
NI1102   NI        0.531875    0.094375    0.250625     0.004307
NI1103   NI        0.563125    0.063125    0.250625     0.004307
NI1104   NI        0.563125    0.094375    0.281875     0.004307
NI1105   NI        0.594375    0.063125    0.281875     0.004307
NI1106   NI        0.594375    0.094375    0.250625     0.004307
NI1107   NI        0.625625    0.094375    0.281875     0.004307
NI1108   NI        0.156875    0.156875    0.250625     0.004307
NI1109   NI        0.188125    0.125625    0.250625     0.004307
NI1110   NI        0.188125    0.156875    0.281875     0.004307
NI1111   NI        0.219375    0.125625    0.281875     0.004307
NI1112   NI        0.219375    0.156875    0.250625     0.004307
NI1113   NI        0.250625    0.125625    0.250625     0.004307
NI1114   NI        0.250625    0.156875    0.281875     0.004307
NI1115   NI        0.281875    0.125625    0.281875     0.004307
NI1116   NI        0.281875    0.156875    0.250625     0.004307
NI1117   NI        0.313125    0.125625    0.250625     0.004307
NI1118   NI        0.313125    0.156875    0.281875     0.004307
NI1119   NI        0.344375    0.125625    0.281875     0.004307
NI1120   NI        0.344375    0.156875    0.250625     0.004307
NI1121   NI        0.375625    0.125625    0.250625     0.004307
NI1122   NI        0.375625    0.156875    0.281875     0.004307
NI1123   NI        0.406875    0.125625    0.281875     0.004307
NI1124   NI        0.406875    0.156875    0.250625     0.004307
NI1125   NI        0.438125    0.125625    0.250625     0.004307
NI1126   NI        0.438125    0.156875    0.281875     0.004307
NI1127   NI        0.469375    0.125625    0.281875     0.004307
NI1128   NI        0.469375    0.156875    0.250625     0.004307
NI1129   NI        0.500625    0.125625    0.250625     0.004307
NI1130   NI        0.500625    0.156875    0.281875     0.004307
NI1131   NI        0.531875    0.125625    0.281875     0.004307
NI1132   NI        0.531875    0.156875    0.250625     0.004307
NI1133   NI        0.563125    0.125625    0.250625     0.004307
NI1134   NI        0.563125    0.156875    0.281875     0.004307
NI1135   NI        0.594375    0.125625    0.281875     0.004307
NI1136   NI        0.594375    0.156875    0.250625     0.004307
NI1137   NI        0.625625    0.125625    0.250625     0.004307
NI1138   NI        0.625625    0.156875    0.281875     0.004307
NI1139   NI        0.656875    0.125625    0.281875     0.004307
NI1140   NI        0.656875    0.156875    0.250625     0.004307
NI1141   NI        0.688125    0.125625    0.250625     0.004307
NI1142   NI        0.688125    0.156875    0.281875     0.004307
NI1143   NI        0.719375    0.156875    0.250625     0.004307
NI1144   NI        0.125625    0.188125    0.250625     0.004307
NI1145   NI        0.125625    0.219375    0.281875     0.004307
NI1146   NI        0.156875    0.188125    0.281875     0.004307
NI1147   NI        0.156875    0.219375    0.250625     0.004307
NI1148   NI        0.188125    0.188125    0.250625     0.004307
NI1149   NI        0.188125    0.219375    0.281875     0.004307
NI1150   NI        0.219375    0.188125    0.281875     0.004307
NI1151   NI        0.219375    0.219375    0.250625     0.004307
NI1152   NI        0.250625    0.188125    0.250625     0.004307
NI1153   NI        0.250625    0.219375    0.281875     0.004307
NI1154   NI        0.281875    0.188125    0.281875     0.004307
NI1155   NI        0.281875    0.219375    0.250625     0.004307
NI1156   NI        0.313125    0.188125    0.250625     0.004307
NI1157   NI        0.313125    0.219375    0.281875     0.004307
NI1158   NI        0.344375    0.188125    0.281875     0.004307
NI1159   NI        0.344375    0.219375    0.250625     0.004307
NI1160   NI        0.375625    0.188125    0.250625     0.004307
NI1161   NI        0.375625    0.219375    0.281875     0.004307
NI1162   NI        0.406875    0.188125    0.281875     0.004307
NI1163   NI        0.406875    0.219375    0.250625     0.004307
NI1164   NI        0.438125    0.188125    0.250625     0.004307
NI1165   NI        0.438125    0.219375    0.281875     0.004307
NI1166   NI        0.469375    0.188125    0.281875     0.004307
NI1167   NI        0.469375    0.219375    0.250625     0.004307
NI1168   NI        0.500625    0.188125    0.250625     0.004307
NI1169   NI        0.500625    0.219375    0.281875     0.004307
NI1170   NI        0.531875    0.188125    0.281875     0.004307
NI1171   NI        0.531875    0.219375    0.250625     0.004307
NI1172   NI        0.563125    0.188125    0.250625     0.004307
NI1173   NI        0.563125    0.219375    0.281875     0.004307
NI1174   NI        0.594375    0.188125    0.281875     0.004307
NI1175   NI        0.594375    0.219375    0.250625     0.004307
NI1176   NI        0.625625    0.188125    0.250625     0.004307
NI1177   NI        0.625625    0.219375    0.281875     0.004307
NI1178   NI        0.656875    0.188125    0.281875     0.004307
NI1179   NI        0.656875    0.219375    0.250625     0.004307
NI1180   NI        0.688125    0.188125    0.250625     0.004307
NI1181   NI        0.688125    0.219375    0.281875     0.004307
NI1182   NI        0.719375    0.188125    0.281875     0.004307
NI1183   NI        0.719375    0.219375    0.250625     0.004307
NI1184   NI        0.750625    0.188125    0.250625     0.004307
NI1185   NI        0.750625    0.219375    0.281875     0.004307
NI1186   NI        0.063125    0.281875    0.281875     0.004307
NI1187   NI        0.094375    0.250625    0.281875     0.004307
NI1188   NI        0.094375    0.281875    0.250625     0.004307
NI1189   NI        0.125625    0.250625    0.250625     0.004307
NI1190   NI        0.125625    0.281875    0.281875     0.004307
NI1191   NI        0.156875    0.250625    0.281875     0.004307
NI1192   NI        0.156875    0.281875    0.250625     0.004307
NI1193   NI        0.188125    0.250625    0.250625     0.004307
NI1194   NI        0.188125    0.281875    0.281875     0.004307
NI1195   NI        0.219375    0.250625    0.281875     0.004307
NI1196   NI        0.219375    0.281875    0.250625     0.004307
NI1197   NI        0.250625    0.250625    0.250625     0.004307
NI1198   NI        0.250625    0.281875    0.281875     0.004307
NI1199   NI        0.281875    0.250625    0.281875     0.004307
NI1200   NI        0.281875    0.281875    0.250625     0.004307
NI1201   NI        0.313125    0.250625    0.250625     0.004307
NI1202   NI        0.313125    0.281875    0.281875     0.004307
NI1203   NI        0.344375    0.250625    0.281875     0.004307
NI1204   NI        0.344375    0.281875    0.250625     0.004307
NI1205   NI        0.375625    0.250625    0.250625     0.004307
NI1206   NI        0.375625    0.281875    0.281875     0.004307
NI1207   NI        0.406875    0.250625    0.281875     0.004307
NI1208   NI        0.406875    0.281875    0.250625     0.004307
NI1209   NI        0.438125    0.250625    0.250625     0.004307
NI1210   NI        0.438125    0.281875    0.281875     0.004307
NI1211   NI        0.469375    0.250625    0.281875     0.004307
NI1212   NI        0.469375    0.281875    0.250625     0.004307
NI1213   NI        0.500625    0.250625    0.250625     0.004307
NI1214   NI        0.500625    0.281875    0.281875     0.004307
NI1215   NI        0.531875    0.250625    0.281875     0.004307
NI1216   NI        0.531875    0.281875    0.250625     0.004307
NI1217   NI        0.563125    0.250625    0.250625     0.004307
NI1218   NI        0.563125    0.281875    0.281875     0.004307
NI1219   NI        0.594375    0.250625    0.281875     0.004307
NI1220   NI        0.594375    0.281875    0.250625     0.004307
NI1221   NI        0.625625    0.250625    0.250625     0.004307
NI1222   NI        0.625625    0.281875    0.281875     0.004307
NI1223   NI        0.656875    0.250625    0.281875     0.004307
NI1224   NI        0.656875    0.281875    0.250625     0.004307
NI1225   NI        0.688125    0.250625    0.250625     0.004307
NI1226   NI        0.688125    0.281875    0.281875     0.004307
NI1227   NI        0.719375    0.250625    0.281875     0.004307
NI1228   NI        0.719375    0.281875    0.250625     0.004307
NI1229   NI        0.750625    0.250625    0.250625     0.004307
NI1230   NI        0.750625    0.281875    0.281875     0.004307
NI1231   NI        0.781875    0.250625    0.281875     0.004307
NI1232   NI        0.781875    0.281875    0.250625     0.004307
NI1233   NI        0.813125    0.281875    0.281875     0.004307
NI1234   NI        0.063125    0.313125    0.250625     0.004307
NI1235   NI        0.063125    0.344375    0.281875     0.004307
NI1236   NI        0.094375    0.313125    0.281875     0.004307
NI1237   NI        0.094375    0.344375    0.250625     0.004307
NI1238   NI        0.125625    0.313125    0.250625     0.004307
NI1239   NI        0.125625    0.344375    0.281875     0.004307
NI1240   NI        0.156875    0.313125    0.281875     0.004307
NI1241   NI        0.156875    0.344375    0.250625     0.004307
NI1242   NI        0.188125    0.313125    0.250625     0.004307
NI1243   NI        0.188125    0.344375    0.281875     0.004307
NI1244   NI        0.219375    0.313125    0.281875     0.004307
NI1245   NI        0.219375    0.344375    0.250625     0.004307
NI1246   NI        0.250625    0.313125    0.250625     0.004307
NI1247   NI        0.250625    0.344375    0.281875     0.004307
NI1248   NI        0.281875    0.313125    0.281875     0.004307
NI1249   NI        0.281875    0.344375    0.250625     0.004307
NI1250   NI        0.313125    0.313125    0.250625     0.004307
NI1251   NI        0.313125    0.344375    0.281875     0.004307
NI1252   NI        0.344375    0.313125    0.281875     0.004307
NI1253   NI        0.344375    0.344375    0.250625     0.004307
NI1254   NI        0.375625    0.313125    0.250625     0.004307
NI1255   NI        0.375625    0.344375    0.281875     0.004307
NI1256   NI        0.406875    0.313125    0.281875     0.004307
NI1257   NI        0.406875    0.344375    0.250625     0.004307
NI1258   NI        0.438125    0.313125    0.250625     0.004307
NI1259   NI        0.438125    0.344375    0.281875     0.004307
NI1260   NI        0.469375    0.313125    0.281875     0.004307
NI1261   NI        0.469375    0.344375    0.250625     0.004307
NI1262   NI        0.500625    0.313125    0.250625     0.004307
NI1263   NI        0.500625    0.344375    0.281875     0.004307
NI1264   NI        0.531875    0.313125    0.281875     0.004307
NI1265   NI        0.531875    0.344375    0.250625     0.004307
NI1266   NI        0.563125    0.313125    0.250625     0.004307
NI1267   NI        0.563125    0.344375    0.281875     0.004307
NI1268   NI        0.594375    0.313125    0.281875     0.004307
NI1269   NI        0.594375    0.344375    0.250625     0.004307
NI1270   NI        0.625625    0.313125    0.250625     0.004307
NI1271   NI        0.625625    0.344375    0.281875     0.004307
NI1272   NI        0.656875    0.313125    0.281875     0.004307
NI1273   NI        0.656875    0.344375    0.250625     0.004307
NI1274   NI        0.688125    0.313125    0.250625     0.004307
NI1275   NI        0.688125    0.344375    0.281875     0.004307
NI1276   NI        0.719375    0.313125    0.281875     0.004307
NI1277   NI        0.719375    0.344375    0.250625     0.004307
NI1278   NI        0.750625    0.313125    0.250625     0.004307
NI1279   NI        0.750625    0.344375    0.281875     0.004307
NI1280   NI        0.781875    0.313125    0.281875     0.004307
NI1281   NI        0.781875    0.344375    0.250625     0.004307
NI1282   NI        0.813125    0.313125    0.250625     0.004307
NI1283   NI        0.813125    0.344375    0.281875     0.004307
NI1284   NI        0.031875    0.375625    0.281875     0.004307
NI1285   NI        0.063125    0.375625    0.250625     0.004307
NI1286   NI        0.063125    0.406875    0.281875     0.004307
NI1287   NI        0.094375    0.375625    0.281875     0.004307
NI1288   NI        0.094375    0.406875    0.250625     0.004307
NI1289   NI        0.125625    0.375625    0.250625     0.004307
NI1290   NI        0.125625    0.406875    0.281875     0.004307
NI1291   NI        0.156875    0.375625    0.281875     0.004307
NI1292   NI        0.156875    0.406875    0.250625     0.004307
NI1293   NI        0.188125    0.375625    0.250625     0.004307
NI1294   NI        0.188125    0.406875    0.281875     0.004307
NI1295   NI        0.219375    0.375625    0.281875     0.004307
NI1296   NI        0.219375    0.406875    0.250625     0.004307
NI1297   NI        0.250625    0.375625    0.250625     0.004307
NI1298   NI        0.250625    0.406875    0.281875     0.004307
NI1299   NI        0.281875    0.375625    0.281875     0.004307
NI1300   NI        0.281875    0.406875    0.250625     0.004307
NI1301   NI        0.313125    0.375625    0.250625     0.004307
NI1302   NI        0.313125    0.406875    0.281875     0.004307
NI1303   NI        0.344375    0.375625    0.281875     0.004307
NI1304   NI        0.344375    0.406875    0.250625     0.004307
NI1305   NI        0.375625    0.375625    0.250625     0.004307
NI1306   NI        0.375625    0.406875    0.281875     0.004307
NI1307   NI        0.406875    0.375625    0.281875     0.004307
NI1308   NI        0.406875    0.406875    0.250625     0.004307
NI1309   NI        0.438125    0.375625    0.250625     0.004307
NI1310   NI        0.438125    0.406875    0.281875     0.004307
NI1311   NI        0.469375    0.375625    0.281875     0.004307
NI1312   NI        0.469375    0.406875    0.250625     0.004307
NI1313   NI        0.500625    0.375625    0.250625     0.004307
NI1314   NI        0.500625    0.406875    0.281875     0.004307
NI1315   NI        0.531875    0.375625    0.281875     0.004307
NI1316   NI        0.531875    0.406875    0.250625     0.004307
NI1317   NI        0.563125    0.375625    0.250625     0.004307
NI1318   NI        0.563125    0.406875    0.281875     0.004307
NI1319   NI        0.594375    0.375625    0.281875     0.004307
NI1320   NI        0.594375    0.406875    0.250625     0.004307
NI1321   NI        0.625625    0.375625    0.250625     0.004307
NI1322   NI        0.625625    0.406875    0.281875     0.004307
NI1323   NI        0.656875    0.375625    0.281875     0.004307
NI1324   NI        0.656875    0.406875    0.250625     0.004307
NI1325   NI        0.688125    0.375625    0.250625     0.004307
NI1326   NI        0.688125    0.406875    0.281875     0.004307
NI1327   NI        0.719375    0.375625    0.281875     0.004307
NI1328   NI        0.719375    0.406875    0.250625     0.004307
NI1329   NI        0.750625    0.375625    0.250625     0.004307
NI1330   NI        0.750625    0.406875    0.281875     0.004307
NI1331   NI        0.781875    0.375625    0.281875     0.004307
NI1332   NI        0.781875    0.406875    0.250625     0.004307
NI1333   NI        0.813125    0.375625    0.250625     0.004307
NI1334   NI        0.813125    0.406875    0.281875     0.004307
NI1335   NI        0.844375    0.375625    0.281875     0.004307
NI1336   NI        0.031875    0.438125    0.281875     0.004307
NI1337   NI        0.063125    0.438125    0.250625     0.004307
NI1338   NI        0.063125    0.469375    0.281875     0.004307
NI1339   NI        0.094375    0.438125    0.281875     0.004307
NI1340   NI        0.094375    0.469375    0.250625     0.004307
NI1341   NI        0.125625    0.438125    0.250625     0.004307
NI1342   NI        0.125625    0.469375    0.281875     0.004307
NI1343   NI        0.156875    0.438125    0.281875     0.004307
NI1344   NI        0.156875    0.469375    0.250625     0.004307
NI1345   NI        0.188125    0.438125    0.250625     0.004307
NI1346   NI        0.188125    0.469375    0.281875     0.004307
NI1347   NI        0.219375    0.438125    0.281875     0.004307
NI1348   NI        0.219375    0.469375    0.250625     0.004307
NI1349   NI        0.250625    0.438125    0.250625     0.004307
NI1350   NI        0.250625    0.469375    0.281875     0.004307
NI1351   NI        0.281875    0.438125    0.281875     0.004307
NI1352   NI        0.281875    0.469375    0.250625     0.004307
NI1353   NI        0.313125    0.438125    0.250625     0.004307
NI1354   NI        0.313125    0.469375    0.281875     0.004307
NI1355   NI        0.344375    0.438125    0.281875     0.004307
NI1356   NI        0.344375    0.469375    0.250625     0.004307
NI1357   NI        0.375625    0.438125    0.250625     0.004307
NI1358   NI        0.375625    0.469375    0.281875     0.004307
NI1359   NI        0.406875    0.438125    0.281875     0.004307
NI1360   NI        0.406875    0.469375    0.250625     0.004307
NI1361   NI        0.438125    0.438125    0.250625     0.004307
NI1362   NI        0.438125    0.469375    0.281875     0.004307
NI1363   NI        0.469375    0.438125    0.281875     0.004307
NI1364   NI        0.469375    0.469375    0.250625     0.004307
NI1365   NI        0.500625    0.438125    0.250625     0.004307
NI1366   NI        0.500625    0.469375    0.281875     0.004307
NI1367   NI        0.531875    0.438125    0.281875     0.004307
NI1368   NI        0.531875    0.469375    0.250625     0.004307
NI1369   NI        0.563125    0.438125    0.250625     0.004307
NI1370   NI        0.563125    0.469375    0.281875     0.004307
NI1371   NI        0.594375    0.438125    0.281875     0.004307
NI1372   NI        0.594375    0.469375    0.250625     0.004307
NI1373   NI        0.625625    0.438125    0.250625     0.004307
NI1374   NI        0.625625    0.469375    0.281875     0.004307
NI1375   NI        0.656875    0.438125    0.281875     0.004307
NI1376   NI        0.656875    0.469375    0.250625     0.004307
NI1377   NI        0.688125    0.438125    0.250625     0.004307
NI1378   NI        0.688125    0.469375    0.281875     0.004307
NI1379   NI        0.719375    0.438125    0.281875     0.004307
NI1380   NI        0.719375    0.469375    0.250625     0.004307
NI1381   NI        0.750625    0.438125    0.250625     0.004307
NI1382   NI        0.750625    0.469375    0.281875     0.004307
NI1383   NI        0.781875    0.438125    0.281875     0.004307
NI1384   NI        0.781875    0.469375    0.250625     0.004307
NI1385   NI        0.813125    0.438125    0.250625     0.004307
NI1386   NI        0.813125    0.469375    0.281875     0.004307
NI1387   NI        0.844375    0.438125    0.281875     0.004307
NI1388   NI        0.031875    0.500625    0.281875     0.004307
NI1389   NI        0.063125    0.500625    0.250625     0.004307
NI1390   NI        0.063125    0.531875    0.281875     0.004307
NI1391   NI        0.094375    0.500625    0.281875     0.004307
NI1392   NI        0.094375    0.531875    0.250625     0.004307
NI1393   NI        0.125625    0.500625    0.250625     0.004307
NI1394   NI        0.125625    0.531875    0.281875     0.004307
NI1395   NI        0.156875    0.500625    0.281875     0.004307
NI1396   NI        0.156875    0.531875    0.250625     0.004307
NI1397   NI        0.188125    0.500625    0.250625     0.004307
NI1398   NI        0.188125    0.531875    0.281875     0.004307
NI1399   NI        0.219375    0.500625    0.281875     0.004307
NI1400   NI        0.219375    0.531875    0.250625     0.004307
NI1401   NI        0.250625    0.500625    0.250625     0.004307
NI1402   NI        0.250625    0.531875    0.281875     0.004307
NI1403   NI        0.281875    0.500625    0.281875     0.004307
NI1404   NI        0.281875    0.531875    0.250625     0.004307
NI1405   NI        0.313125    0.500625    0.250625     0.004307
NI1406   NI        0.313125    0.531875    0.281875     0.004307
NI1407   NI        0.344375    0.500625    0.281875     0.004307
NI1408   NI        0.344375    0.531875    0.250625     0.004307
NI1409   NI        0.375625    0.500625    0.250625     0.004307
NI1410   NI        0.375625    0.531875    0.281875     0.004307
NI1411   NI        0.406875    0.500625    0.281875     0.004307
NI1412   NI        0.406875    0.531875    0.250625     0.004307
NI1413   NI        0.438125    0.500625    0.250625     0.004307
NI1414   NI        0.438125    0.531875    0.281875     0.004307
NI1415   NI        0.469375    0.500625    0.281875     0.004307
NI1416   NI        0.469375    0.531875    0.250625     0.004307
NI1417   NI        0.500625    0.500625    0.250625     0.004307
NI1418   NI        0.500625    0.531875    0.281875     0.004307
NI1419   NI        0.531875    0.500625    0.281875     0.004307
NI1420   NI        0.531875    0.531875    0.250625     0.004307
NI1421   NI        0.563125    0.500625    0.250625     0.004307
NI1422   NI        0.563125    0.531875    0.281875     0.004307
NI1423   NI        0.594375    0.500625    0.281875     0.004307
NI1424   NI        0.594375    0.531875    0.250625     0.004307
NI1425   NI        0.625625    0.500625    0.250625     0.004307
NI1426   NI        0.625625    0.531875    0.281875     0.004307
NI1427   NI        0.656875    0.500625    0.281875     0.004307
NI1428   NI        0.656875    0.531875    0.250625     0.004307
NI1429   NI        0.688125    0.500625    0.250625     0.004307
NI1430   NI        0.688125    0.531875    0.281875     0.004307
NI1431   NI        0.719375    0.500625    0.281875     0.004307
NI1432   NI        0.719375    0.531875    0.250625     0.004307
NI1433   NI        0.750625    0.500625    0.250625     0.004307
NI1434   NI        0.750625    0.531875    0.281875     0.004307
NI1435   NI        0.781875    0.500625    0.281875     0.004307
NI1436   NI        0.781875    0.531875    0.250625     0.004307
NI1437   NI        0.813125    0.500625    0.250625     0.004307
NI1438   NI        0.813125    0.531875    0.281875     0.004307
NI1439   NI        0.844375    0.500625    0.281875     0.004307
NI1440   NI        0.063125    0.563125    0.250625     0.004307
NI1441   NI        0.063125    0.594375    0.281875     0.004307
NI1442   NI        0.094375    0.563125    0.281875     0.004307
NI1443   NI        0.094375    0.594375    0.250625     0.004307
NI1444   NI        0.125625    0.563125    0.250625     0.004307
NI1445   NI        0.125625    0.594375    0.281875     0.004307
NI1446   NI        0.156875    0.563125    0.281875     0.004307
NI1447   NI        0.156875    0.594375    0.250625     0.004307
NI1448   NI        0.188125    0.563125    0.250625     0.004307
NI1449   NI        0.188125    0.594375    0.281875     0.004307
NI1450   NI        0.219375    0.563125    0.281875     0.004307
NI1451   NI        0.219375    0.594375    0.250625     0.004307
NI1452   NI        0.250625    0.563125    0.250625     0.004307
NI1453   NI        0.250625    0.594375    0.281875     0.004307
NI1454   NI        0.281875    0.563125    0.281875     0.004307
NI1455   NI        0.281875    0.594375    0.250625     0.004307
NI1456   NI        0.313125    0.563125    0.250625     0.004307
NI1457   NI        0.313125    0.594375    0.281875     0.004307
NI1458   NI        0.344375    0.563125    0.281875     0.004307
NI1459   NI        0.344375    0.594375    0.250625     0.004307
NI1460   NI        0.375625    0.563125    0.250625     0.004307
NI1461   NI        0.375625    0.594375    0.281875     0.004307
NI1462   NI        0.406875    0.563125    0.281875     0.004307
NI1463   NI        0.406875    0.594375    0.250625     0.004307
NI1464   NI        0.438125    0.563125    0.250625     0.004307
NI1465   NI        0.438125    0.594375    0.281875     0.004307
NI1466   NI        0.469375    0.563125    0.281875     0.004307
NI1467   NI        0.469375    0.594375    0.250625     0.004307
NI1468   NI        0.500625    0.563125    0.250625     0.004307
NI1469   NI        0.500625    0.594375    0.281875     0.004307
NI1470   NI        0.531875    0.563125    0.281875     0.004307
NI1471   NI        0.531875    0.594375    0.250625     0.004307
NI1472   NI        0.563125    0.563125    0.250625     0.004307
NI1473   NI        0.563125    0.594375    0.281875     0.004307
NI1474   NI        0.594375    0.563125    0.281875     0.004307
NI1475   NI        0.594375    0.594375    0.250625     0.004307
NI1476   NI        0.625625    0.563125    0.250625     0.004307
NI1477   NI        0.625625    0.594375    0.281875     0.004307
NI1478   NI        0.656875    0.563125    0.281875     0.004307
NI1479   NI        0.656875    0.594375    0.250625     0.004307
NI1480   NI        0.688125    0.563125    0.250625     0.004307
NI1481   NI        0.688125    0.594375    0.281875     0.004307
NI1482   NI        0.719375    0.563125    0.281875     0.004307
NI1483   NI        0.719375    0.594375    0.250625     0.004307
NI1484   NI        0.750625    0.563125    0.250625     0.004307
NI1485   NI        0.750625    0.594375    0.281875     0.004307
NI1486   NI        0.781875    0.563125    0.281875     0.004307
NI1487   NI        0.781875    0.594375    0.250625     0.004307
NI1488   NI        0.813125    0.563125    0.250625     0.004307
NI1489   NI        0.813125    0.594375    0.281875     0.004307
NI1490   NI        0.094375    0.625625    0.281875     0.004307
NI1491   NI        0.125625    0.625625    0.250625     0.004307
NI1492   NI        0.125625    0.656875    0.281875     0.004307
NI1493   NI        0.156875    0.625625    0.281875     0.004307
NI1494   NI        0.156875    0.656875    0.250625     0.004307
NI1495   NI        0.188125    0.625625    0.250625     0.004307
NI1496   NI        0.188125    0.656875    0.281875     0.004307
NI1497   NI        0.219375    0.625625    0.281875     0.004307
NI1498   NI        0.219375    0.656875    0.250625     0.004307
NI1499   NI        0.250625    0.625625    0.250625     0.004307
NI1500   NI        0.250625    0.656875    0.281875     0.004307
NI1501   NI        0.281875    0.625625    0.281875     0.004307
NI1502   NI        0.281875    0.656875    0.250625     0.004307
NI1503   NI        0.313125    0.625625    0.250625     0.004307
NI1504   NI        0.313125    0.656875    0.281875     0.004307
NI1505   NI        0.344375    0.625625    0.281875     0.004307
NI1506   NI        0.344375    0.656875    0.250625     0.004307
NI1507   NI        0.375625    0.625625    0.250625     0.004307
NI1508   NI        0.375625    0.656875    0.281875     0.004307
NI1509   NI        0.406875    0.625625    0.281875     0.004307
NI1510   NI        0.406875    0.656875    0.250625     0.004307
NI1511   NI        0.438125    0.625625    0.250625     0.004307
NI1512   NI        0.438125    0.656875    0.281875     0.004307
NI1513   NI        0.469375    0.625625    0.281875     0.004307
NI1514   NI        0.469375    0.656875    0.250625     0.004307
NI1515   NI        0.500625    0.625625    0.250625     0.004307
NI1516   NI        0.500625    0.656875    0.281875     0.004307
NI1517   NI        0.531875    0.625625    0.281875     0.004307
NI1518   NI        0.531875    0.656875    0.250625     0.004307
NI1519   NI        0.563125    0.625625    0.250625     0.004307
NI1520   NI        0.563125    0.656875    0.281875     0.004307
NI1521   NI        0.594375    0.625625    0.281875     0.004307
NI1522   NI        0.594375    0.656875    0.250625     0.004307
NI1523   NI        0.625625    0.625625    0.250625     0.004307
NI1524   NI        0.625625    0.656875    0.281875     0.004307
NI1525   NI        0.656875    0.625625    0.281875     0.004307
NI1526   NI        0.656875    0.656875    0.250625     0.004307
NI1527   NI        0.688125    0.625625    0.250625     0.004307
NI1528   NI        0.688125    0.656875    0.281875     0.004307
NI1529   NI        0.719375    0.625625    0.281875     0.004307
NI1530   NI        0.719375    0.656875    0.250625     0.004307
NI1531   NI        0.750625    0.625625    0.250625     0.004307
NI1532   NI        0.750625    0.656875    0.281875     0.004307
NI1533   NI        0.781875    0.625625    0.281875     0.004307
NI1534   NI        0.125625    0.688125    0.250625     0.004307
NI1535   NI        0.156875    0.688125    0.281875     0.004307
NI1536   NI        0.156875    0.719375    0.250625     0.004307
NI1537   NI        0.188125    0.688125    0.250625     0.004307
NI1538   NI        0.188125    0.719375    0.281875     0.004307
NI1539   NI        0.219375    0.688125    0.281875     0.004307
NI1540   NI        0.219375    0.719375    0.250625     0.004307
NI1541   NI        0.250625    0.688125    0.250625     0.004307
NI1542   NI        0.250625    0.719375    0.281875     0.004307
NI1543   NI        0.281875    0.688125    0.281875     0.004307
NI1544   NI        0.281875    0.719375    0.250625     0.004307
NI1545   NI        0.313125    0.688125    0.250625     0.004307
NI1546   NI        0.313125    0.719375    0.281875     0.004307
NI1547   NI        0.344375    0.688125    0.281875     0.004307
NI1548   NI        0.344375    0.719375    0.250625     0.004307
NI1549   NI        0.375625    0.688125    0.250625     0.004307
NI1550   NI        0.375625    0.719375    0.281875     0.004307
NI1551   NI        0.406875    0.688125    0.281875     0.004307
NI1552   NI        0.406875    0.719375    0.250625     0.004307
NI1553   NI        0.438125    0.688125    0.250625     0.004307
NI1554   NI        0.438125    0.719375    0.281875     0.004307
NI1555   NI        0.469375    0.688125    0.281875     0.004307
NI1556   NI        0.469375    0.719375    0.250625     0.004307
NI1557   NI        0.500625    0.688125    0.250625     0.004307
NI1558   NI        0.500625    0.719375    0.281875     0.004307
NI1559   NI        0.531875    0.688125    0.281875     0.004307
NI1560   NI        0.531875    0.719375    0.250625     0.004307
NI1561   NI        0.563125    0.688125    0.250625     0.004307
NI1562   NI        0.563125    0.719375    0.281875     0.004307
NI1563   NI        0.594375    0.688125    0.281875     0.004307
NI1564   NI        0.594375    0.719375    0.250625     0.004307
NI1565   NI        0.625625    0.688125    0.250625     0.004307
NI1566   NI        0.625625    0.719375    0.281875     0.004307
NI1567   NI        0.656875    0.688125    0.281875     0.004307
NI1568   NI        0.656875    0.719375    0.250625     0.004307
NI1569   NI        0.688125    0.688125    0.250625     0.004307
NI1570   NI        0.688125    0.719375    0.281875     0.004307
NI1571   NI        0.719375    0.688125    0.281875     0.004307
NI1572   NI        0.719375    0.719375    0.250625     0.004307
NI1573   NI        0.750625    0.688125    0.250625     0.004307
NI1574   NI        0.188125    0.750625    0.250625     0.004307
NI1575   NI        0.219375    0.750625    0.281875     0.004307
NI1576   NI        0.250625    0.750625    0.250625     0.004307
NI1577   NI        0.250625    0.781875    0.281875     0.004307
NI1578   NI        0.281875    0.750625    0.281875     0.004307
NI1579   NI        0.281875    0.781875    0.250625     0.004307
NI1580   NI        0.313125    0.750625    0.250625     0.004307
NI1581   NI        0.313125    0.781875    0.281875     0.004307
NI1582   NI        0.344375    0.750625    0.281875     0.004307
NI1583   NI        0.344375    0.781875    0.250625     0.004307
NI1584   NI        0.375625    0.750625    0.250625     0.004307
NI1585   NI        0.375625    0.781875    0.281875     0.004307
NI1586   NI        0.406875    0.750625    0.281875     0.004307
NI1587   NI        0.406875    0.781875    0.250625     0.004307
NI1588   NI        0.438125    0.750625    0.250625     0.004307
NI1589   NI        0.438125    0.781875    0.281875     0.004307
NI1590   NI        0.469375    0.750625    0.281875     0.004307
NI1591   NI        0.469375    0.781875    0.250625     0.004307
NI1592   NI        0.500625    0.750625    0.250625     0.004307
NI1593   NI        0.500625    0.781875    0.281875     0.004307
NI1594   NI        0.531875    0.750625    0.281875     0.004307
NI1595   NI        0.531875    0.781875    0.250625     0.004307
NI1596   NI        0.563125    0.750625    0.250625     0.004307
NI1597   NI        0.563125    0.781875    0.281875     0.004307
NI1598   NI        0.594375    0.750625    0.281875     0.004307
NI1599   NI        0.594375    0.781875    0.250625     0.004307
NI1600   NI        0.625625    0.750625    0.250625     0.004307
NI1601   NI        0.625625    0.781875    0.281875     0.004307
NI1602   NI        0.656875    0.750625    0.281875     0.004307
NI1603   NI        0.688125    0.750625    0.250625     0.004307
NI1604   NI        0.281875    0.813125    0.281875     0.004307
NI1605   NI        0.313125    0.813125    0.250625     0.004307
NI1606   NI        0.344375    0.813125    0.281875     0.004307
NI1607   NI        0.375625    0.813125    0.250625     0.004307
NI1608   NI        0.375625    0.844375    0.281875     0.004307
NI1609   NI        0.406875    0.813125    0.281875     0.004307
NI1610   NI        0.438125    0.813125    0.250625     0.004307
NI1611   NI        0.438125    0.844375    0.281875     0.004307
NI1612   NI        0.469375    0.813125    0.281875     0.004307
NI1613   NI        0.500625    0.813125    0.250625     0.004307
NI1614   NI        0.500625    0.844375    0.281875     0.004307
NI1615   NI        0.531875    0.813125    0.281875     0.004307
NI1616   NI        0.563125    0.813125    0.250625     0.004307
NI1617   NI        0.594375    0.813125    0.281875     0.004307
NI1618   NI        0.313125    0.031875    0.344375     0.004307
NI1619   NI        0.344375    0.031875    0.313125     0.004307
NI1620   NI        0.375625    0.031875    0.344375     0.004307
NI1621   NI        0.406875    0.031875    0.313125     0.004307
NI1622   NI        0.438125    0.031875    0.344375     0.004307
NI1623   NI        0.469375    0.031875    0.313125     0.004307
NI1624   NI        0.500625    0.031875    0.344375     0.004307
NI1625   NI        0.531875    0.031875    0.313125     0.004307
NI1626   NI        0.563125    0.031875    0.344375     0.004307
NI1627   NI        0.188125    0.094375    0.344375     0.004307
NI1628   NI        0.219375    0.094375    0.313125     0.004307
NI1629   NI        0.250625    0.063125    0.313125     0.004307
NI1630   NI        0.250625    0.094375    0.344375     0.004307
NI1631   NI        0.281875    0.063125    0.344375     0.004307
NI1632   NI        0.281875    0.094375    0.313125     0.004307
NI1633   NI        0.313125    0.063125    0.313125     0.004307
NI1634   NI        0.313125    0.094375    0.344375     0.004307
NI1635   NI        0.344375    0.063125    0.344375     0.004307
NI1636   NI        0.344375    0.094375    0.313125     0.004307
NI1637   NI        0.375625    0.063125    0.313125     0.004307
NI1638   NI        0.375625    0.094375    0.344375     0.004307
NI1639   NI        0.406875    0.063125    0.344375     0.004307
NI1640   NI        0.406875    0.094375    0.313125     0.004307
NI1641   NI        0.438125    0.063125    0.313125     0.004307
NI1642   NI        0.438125    0.094375    0.344375     0.004307
NI1643   NI        0.469375    0.063125    0.344375     0.004307
NI1644   NI        0.469375    0.094375    0.313125     0.004307
NI1645   NI        0.500625    0.063125    0.313125     0.004307
NI1646   NI        0.500625    0.094375    0.344375     0.004307
NI1647   NI        0.531875    0.063125    0.344375     0.004307
NI1648   NI        0.531875    0.094375    0.313125     0.004307
NI1649   NI        0.563125    0.063125    0.313125     0.004307
NI1650   NI        0.563125    0.094375    0.344375     0.004307
NI1651   NI        0.594375    0.063125    0.344375     0.004307
NI1652   NI        0.594375    0.094375    0.313125     0.004307
NI1653   NI        0.625625    0.063125    0.313125     0.004307
NI1654   NI        0.625625    0.094375    0.344375     0.004307
NI1655   NI        0.656875    0.094375    0.313125     0.004307
NI1656   NI        0.688125    0.094375    0.344375     0.004307
NI1657   NI        0.125625    0.156875    0.344375     0.004307
NI1658   NI        0.156875    0.125625    0.344375     0.004307
NI1659   NI        0.156875    0.156875    0.313125     0.004307
NI1660   NI        0.188125    0.125625    0.313125     0.004307
NI1661   NI        0.188125    0.156875    0.344375     0.004307
NI1662   NI        0.219375    0.125625    0.344375     0.004307
NI1663   NI        0.219375    0.156875    0.313125     0.004307
NI1664   NI        0.250625    0.125625    0.313125     0.004307
NI1665   NI        0.250625    0.156875    0.344375     0.004307
NI1666   NI        0.281875    0.125625    0.344375     0.004307
NI1667   NI        0.281875    0.156875    0.313125     0.004307
NI1668   NI        0.313125    0.125625    0.313125     0.004307
NI1669   NI        0.313125    0.156875    0.344375     0.004307
NI1670   NI        0.344375    0.125625    0.344375     0.004307
NI1671   NI        0.344375    0.156875    0.313125     0.004307
NI1672   NI        0.375625    0.125625    0.313125     0.004307
NI1673   NI        0.375625    0.156875    0.344375     0.004307
NI1674   NI        0.406875    0.125625    0.344375     0.004307
NI1675   NI        0.406875    0.156875    0.313125     0.004307
NI1676   NI        0.438125    0.125625    0.313125     0.004307
NI1677   NI        0.438125    0.156875    0.344375     0.004307
NI1678   NI        0.469375    0.125625    0.344375     0.004307
NI1679   NI        0.469375    0.156875    0.313125     0.004307
NI1680   NI        0.500625    0.125625    0.313125     0.004307
NI1681   NI        0.500625    0.156875    0.344375     0.004307
NI1682   NI        0.531875    0.125625    0.344375     0.004307
NI1683   NI        0.531875    0.156875    0.313125     0.004307
NI1684   NI        0.563125    0.125625    0.313125     0.004307
NI1685   NI        0.563125    0.156875    0.344375     0.004307
NI1686   NI        0.594375    0.125625    0.344375     0.004307
NI1687   NI        0.594375    0.156875    0.313125     0.004307
NI1688   NI        0.625625    0.125625    0.313125     0.004307
NI1689   NI        0.625625    0.156875    0.344375     0.004307
NI1690   NI        0.656875    0.125625    0.344375     0.004307
NI1691   NI        0.656875    0.156875    0.313125     0.004307
NI1692   NI        0.688125    0.125625    0.313125     0.004307
NI1693   NI        0.688125    0.156875    0.344375     0.004307
NI1694   NI        0.719375    0.125625    0.344375     0.004307
NI1695   NI        0.719375    0.156875    0.313125     0.004307
NI1696   NI        0.750625    0.156875    0.344375     0.004307
NI1697   NI        0.094375    0.188125    0.344375     0.004307
NI1698   NI        0.094375    0.219375    0.313125     0.004307
NI1699   NI        0.125625    0.188125    0.313125     0.004307
NI1700   NI        0.125625    0.219375    0.344375     0.004307
NI1701   NI        0.156875    0.188125    0.344375     0.004307
NI1702   NI        0.156875    0.219375    0.313125     0.004307
NI1703   NI        0.188125    0.188125    0.313125     0.004307
NI1704   NI        0.188125    0.219375    0.344375     0.004307
NI1705   NI        0.219375    0.188125    0.344375     0.004307
NI1706   NI        0.219375    0.219375    0.313125     0.004307
NI1707   NI        0.250625    0.188125    0.313125     0.004307
NI1708   NI        0.250625    0.219375    0.344375     0.004307
NI1709   NI        0.281875    0.188125    0.344375     0.004307
NI1710   NI        0.281875    0.219375    0.313125     0.004307
NI1711   NI        0.313125    0.188125    0.313125     0.004307
NI1712   NI        0.313125    0.219375    0.344375     0.004307
NI1713   NI        0.344375    0.188125    0.344375     0.004307
NI1714   NI        0.344375    0.219375    0.313125     0.004307
NI1715   NI        0.375625    0.188125    0.313125     0.004307
NI1716   NI        0.375625    0.219375    0.344375     0.004307
NI1717   NI        0.406875    0.188125    0.344375     0.004307
NI1718   NI        0.406875    0.219375    0.313125     0.004307
NI1719   NI        0.438125    0.188125    0.313125     0.004307
NI1720   NI        0.438125    0.219375    0.344375     0.004307
NI1721   NI        0.469375    0.188125    0.344375     0.004307
NI1722   NI        0.469375    0.219375    0.313125     0.004307
NI1723   NI        0.500625    0.188125    0.313125     0.004307
NI1724   NI        0.500625    0.219375    0.344375     0.004307
NI1725   NI        0.531875    0.188125    0.344375     0.004307
NI1726   NI        0.531875    0.219375    0.313125     0.004307
NI1727   NI        0.563125    0.188125    0.313125     0.004307
NI1728   NI        0.563125    0.219375    0.344375     0.004307
NI1729   NI        0.594375    0.188125    0.344375     0.004307
NI1730   NI        0.594375    0.219375    0.313125     0.004307
NI1731   NI        0.625625    0.188125    0.313125     0.004307
NI1732   NI        0.625625    0.219375    0.344375     0.004307
NI1733   NI        0.656875    0.188125    0.344375     0.004307
NI1734   NI        0.656875    0.219375    0.313125     0.004307
NI1735   NI        0.688125    0.188125    0.313125     0.004307
NI1736   NI        0.688125    0.219375    0.344375     0.004307
NI1737   NI        0.719375    0.188125    0.344375     0.004307
NI1738   NI        0.719375    0.219375    0.313125     0.004307
NI1739   NI        0.750625    0.188125    0.313125     0.004307
NI1740   NI        0.750625    0.219375    0.344375     0.004307
NI1741   NI        0.781875    0.188125    0.344375     0.004307
NI1742   NI        0.781875    0.219375    0.313125     0.004307
NI1743   NI        0.063125    0.250625    0.313125     0.004307
NI1744   NI        0.063125    0.281875    0.344375     0.004307
NI1745   NI        0.094375    0.250625    0.344375     0.004307
NI1746   NI        0.094375    0.281875    0.313125     0.004307
NI1747   NI        0.125625    0.250625    0.313125     0.004307
NI1748   NI        0.125625    0.281875    0.344375     0.004307
NI1749   NI        0.156875    0.250625    0.344375     0.004307
NI1750   NI        0.156875    0.281875    0.313125     0.004307
NI1751   NI        0.188125    0.250625    0.313125     0.004307
NI1752   NI        0.188125    0.281875    0.344375     0.004307
NI1753   NI        0.219375    0.250625    0.344375     0.004307
NI1754   NI        0.219375    0.281875    0.313125     0.004307
NI1755   NI        0.250625    0.250625    0.313125     0.004307
NI1756   NI        0.250625    0.281875    0.344375     0.004307
NI1757   NI        0.281875    0.250625    0.344375     0.004307
NI1758   NI        0.281875    0.281875    0.313125     0.004307
NI1759   NI        0.313125    0.250625    0.313125     0.004307
NI1760   NI        0.313125    0.281875    0.344375     0.004307
NI1761   NI        0.344375    0.250625    0.344375     0.004307
NI1762   NI        0.344375    0.281875    0.313125     0.004307
NI1763   NI        0.375625    0.250625    0.313125     0.004307
NI1764   NI        0.375625    0.281875    0.344375     0.004307
NI1765   NI        0.406875    0.250625    0.344375     0.004307
NI1766   NI        0.406875    0.281875    0.313125     0.004307
NI1767   NI        0.438125    0.250625    0.313125     0.004307
NI1768   NI        0.438125    0.281875    0.344375     0.004307
NI1769   NI        0.469375    0.250625    0.344375     0.004307
NI1770   NI        0.469375    0.281875    0.313125     0.004307
NI1771   NI        0.500625    0.250625    0.313125     0.004307
NI1772   NI        0.500625    0.281875    0.344375     0.004307
NI1773   NI        0.531875    0.250625    0.344375     0.004307
NI1774   NI        0.531875    0.281875    0.313125     0.004307
NI1775   NI        0.563125    0.250625    0.313125     0.004307
NI1776   NI        0.563125    0.281875    0.344375     0.004307
NI1777   NI        0.594375    0.250625    0.344375     0.004307
NI1778   NI        0.594375    0.281875    0.313125     0.004307
NI1779   NI        0.625625    0.250625    0.313125     0.004307
NI1780   NI        0.625625    0.281875    0.344375     0.004307
NI1781   NI        0.656875    0.250625    0.344375     0.004307
NI1782   NI        0.656875    0.281875    0.313125     0.004307
NI1783   NI        0.688125    0.250625    0.313125     0.004307
NI1784   NI        0.688125    0.281875    0.344375     0.004307
NI1785   NI        0.719375    0.250625    0.344375     0.004307
NI1786   NI        0.719375    0.281875    0.313125     0.004307
NI1787   NI        0.750625    0.250625    0.313125     0.004307
NI1788   NI        0.750625    0.281875    0.344375     0.004307
NI1789   NI        0.781875    0.250625    0.344375     0.004307
NI1790   NI        0.781875    0.281875    0.313125     0.004307
NI1791   NI        0.813125    0.250625    0.313125     0.004307
NI1792   NI        0.813125    0.281875    0.344375     0.004307
NI1793   NI        0.031875    0.313125    0.344375     0.004307
NI1794   NI        0.031875    0.344375    0.313125     0.004307
NI1795   NI        0.063125    0.313125    0.313125     0.004307
NI1796   NI        0.063125    0.344375    0.344375     0.004307
NI1797   NI        0.094375    0.313125    0.344375     0.004307
NI1798   NI        0.094375    0.344375    0.313125     0.004307
NI1799   NI        0.125625    0.313125    0.313125     0.004307
NI1800   NI        0.125625    0.344375    0.344375     0.004307
NI1801   NI        0.156875    0.313125    0.344375     0.004307
NI1802   NI        0.156875    0.344375    0.313125     0.004307
NI1803   NI        0.188125    0.313125    0.313125     0.004307
NI1804   NI        0.188125    0.344375    0.344375     0.004307
NI1805   NI        0.219375    0.313125    0.344375     0.004307
NI1806   NI        0.219375    0.344375    0.313125     0.004307
NI1807   NI        0.250625    0.313125    0.313125     0.004307
NI1808   NI        0.250625    0.344375    0.344375     0.004307
NI1809   NI        0.281875    0.313125    0.344375     0.004307
NI1810   NI        0.281875    0.344375    0.313125     0.004307
NI1811   NI        0.313125    0.313125    0.313125     0.004307
NI1812   NI        0.313125    0.344375    0.344375     0.004307
NI1813   NI        0.344375    0.313125    0.344375     0.004307
NI1814   NI        0.344375    0.344375    0.313125     0.004307
NI1815   NI        0.375625    0.313125    0.313125     0.004307
NI1816   NI        0.375625    0.344375    0.344375     0.004307
NI1817   NI        0.406875    0.313125    0.344375     0.004307
NI1818   NI        0.406875    0.344375    0.313125     0.004307
NI1819   NI        0.438125    0.313125    0.313125     0.004307
NI1820   NI        0.438125    0.344375    0.344375     0.004307
NI1821   NI        0.469375    0.313125    0.344375     0.004307
NI1822   NI        0.469375    0.344375    0.313125     0.004307
NI1823   NI        0.500625    0.313125    0.313125     0.004307
NI1824   NI        0.500625    0.344375    0.344375     0.004307
NI1825   NI        0.531875    0.313125    0.344375     0.004307
NI1826   NI        0.531875    0.344375    0.313125     0.004307
NI1827   NI        0.563125    0.313125    0.313125     0.004307
NI1828   NI        0.563125    0.344375    0.344375     0.004307
NI1829   NI        0.594375    0.313125    0.344375     0.004307
NI1830   NI        0.594375    0.344375    0.313125     0.004307
NI1831   NI        0.625625    0.313125    0.313125     0.004307
NI1832   NI        0.625625    0.344375    0.344375     0.004307
NI1833   NI        0.656875    0.313125    0.344375     0.004307
NI1834   NI        0.656875    0.344375    0.313125     0.004307
NI1835   NI        0.688125    0.313125    0.313125     0.004307
NI1836   NI        0.688125    0.344375    0.344375     0.004307
NI1837   NI        0.719375    0.313125    0.344375     0.004307
NI1838   NI        0.719375    0.344375    0.313125     0.004307
NI1839   NI        0.750625    0.313125    0.313125     0.004307
NI1840   NI        0.750625    0.344375    0.344375     0.004307
NI1841   NI        0.781875    0.313125    0.344375     0.004307
NI1842   NI        0.781875    0.344375    0.313125     0.004307
NI1843   NI        0.813125    0.313125    0.313125     0.004307
NI1844   NI        0.813125    0.344375    0.344375     0.004307
NI1845   NI        0.844375    0.313125    0.344375     0.004307
NI1846   NI        0.844375    0.344375    0.313125     0.004307
NI1847   NI        0.031875    0.375625    0.344375     0.004307
NI1848   NI        0.031875    0.406875    0.313125     0.004307
NI1849   NI        0.063125    0.375625    0.313125     0.004307
NI1850   NI        0.063125    0.406875    0.344375     0.004307
NI1851   NI        0.094375    0.375625    0.344375     0.004307
NI1852   NI        0.094375    0.406875    0.313125     0.004307
NI1853   NI        0.125625    0.375625    0.313125     0.004307
NI1854   NI        0.125625    0.406875    0.344375     0.004307
NI1855   NI        0.156875    0.375625    0.344375     0.004307
NI1856   NI        0.156875    0.406875    0.313125     0.004307
NI1857   NI        0.188125    0.375625    0.313125     0.004307
NI1858   NI        0.188125    0.406875    0.344375     0.004307
NI1859   NI        0.219375    0.375625    0.344375     0.004307
NI1860   NI        0.219375    0.406875    0.313125     0.004307
NI1861   NI        0.250625    0.375625    0.313125     0.004307
NI1862   NI        0.250625    0.406875    0.344375     0.004307
NI1863   NI        0.281875    0.375625    0.344375     0.004307
NI1864   NI        0.281875    0.406875    0.313125     0.004307
NI1865   NI        0.313125    0.375625    0.313125     0.004307
NI1866   NI        0.313125    0.406875    0.344375     0.004307
NI1867   NI        0.344375    0.375625    0.344375     0.004307
NI1868   NI        0.344375    0.406875    0.313125     0.004307
NI1869   NI        0.375625    0.375625    0.313125     0.004307
NI1870   NI        0.375625    0.406875    0.344375     0.004307
NI1871   NI        0.406875    0.375625    0.344375     0.004307
NI1872   NI        0.406875    0.406875    0.313125     0.004307
NI1873   NI        0.438125    0.375625    0.313125     0.004307
NI1874   NI        0.438125    0.406875    0.344375     0.004307
NI1875   NI        0.469375    0.375625    0.344375     0.004307
NI1876   NI        0.469375    0.406875    0.313125     0.004307
NI1877   NI        0.500625    0.375625    0.313125     0.004307
NI1878   NI        0.500625    0.406875    0.344375     0.004307
NI1879   NI        0.531875    0.375625    0.344375     0.004307
NI1880   NI        0.531875    0.406875    0.313125     0.004307
NI1881   NI        0.563125    0.375625    0.313125     0.004307
NI1882   NI        0.563125    0.406875    0.344375     0.004307
NI1883   NI        0.594375    0.375625    0.344375     0.004307
NI1884   NI        0.594375    0.406875    0.313125     0.004307
NI1885   NI        0.625625    0.375625    0.313125     0.004307
NI1886   NI        0.625625    0.406875    0.344375     0.004307
NI1887   NI        0.656875    0.375625    0.344375     0.004307
NI1888   NI        0.656875    0.406875    0.313125     0.004307
NI1889   NI        0.688125    0.375625    0.313125     0.004307
NI1890   NI        0.688125    0.406875    0.344375     0.004307
NI1891   NI        0.719375    0.375625    0.344375     0.004307
NI1892   NI        0.719375    0.406875    0.313125     0.004307
NI1893   NI        0.750625    0.375625    0.313125     0.004307
NI1894   NI        0.750625    0.406875    0.344375     0.004307
NI1895   NI        0.781875    0.375625    0.344375     0.004307
NI1896   NI        0.781875    0.406875    0.313125     0.004307
NI1897   NI        0.813125    0.375625    0.313125     0.004307
NI1898   NI        0.813125    0.406875    0.344375     0.004307
NI1899   NI        0.844375    0.375625    0.344375     0.004307
NI1900   NI        0.844375    0.406875    0.313125     0.004307
NI1901   NI        0.031875    0.438125    0.344375     0.004307
NI1902   NI        0.031875    0.469375    0.313125     0.004307
NI1903   NI        0.063125    0.438125    0.313125     0.004307
NI1904   NI        0.063125    0.469375    0.344375     0.004307
NI1905   NI        0.094375    0.438125    0.344375     0.004307
NI1906   NI        0.094375    0.469375    0.313125     0.004307
NI1907   NI        0.125625    0.438125    0.313125     0.004307
NI1908   NI        0.125625    0.469375    0.344375     0.004307
NI1909   NI        0.156875    0.438125    0.344375     0.004307
NI1910   NI        0.156875    0.469375    0.313125     0.004307
NI1911   NI        0.188125    0.438125    0.313125     0.004307
NI1912   NI        0.188125    0.469375    0.344375     0.004307
NI1913   NI        0.219375    0.438125    0.344375     0.004307
NI1914   NI        0.219375    0.469375    0.313125     0.004307
NI1915   NI        0.250625    0.438125    0.313125     0.004307
NI1916   NI        0.250625    0.469375    0.344375     0.004307
NI1917   NI        0.281875    0.438125    0.344375     0.004307
NI1918   NI        0.281875    0.469375    0.313125     0.004307
NI1919   NI        0.313125    0.438125    0.313125     0.004307
NI1920   NI        0.313125    0.469375    0.344375     0.004307
NI1921   NI        0.344375    0.438125    0.344375     0.004307
NI1922   NI        0.344375    0.469375    0.313125     0.004307
NI1923   NI        0.375625    0.438125    0.313125     0.004307
NI1924   NI        0.375625    0.469375    0.344375     0.004307
NI1925   NI        0.406875    0.438125    0.344375     0.004307
NI1926   NI        0.406875    0.469375    0.313125     0.004307
NI1927   NI        0.438125    0.438125    0.313125     0.004307
NI1928   NI        0.438125    0.469375    0.344375     0.004307
NI1929   NI        0.469375    0.438125    0.344375     0.004307
NI1930   NI        0.469375    0.469375    0.313125     0.004307
NI1931   NI        0.500625    0.438125    0.313125     0.004307
NI1932   NI        0.500625    0.469375    0.344375     0.004307
NI1933   NI        0.531875    0.438125    0.344375     0.004307
NI1934   NI        0.531875    0.469375    0.313125     0.004307
NI1935   NI        0.563125    0.438125    0.313125     0.004307
NI1936   NI        0.563125    0.469375    0.344375     0.004307
NI1937   NI        0.594375    0.438125    0.344375     0.004307
NI1938   NI        0.594375    0.469375    0.313125     0.004307
NI1939   NI        0.625625    0.438125    0.313125     0.004307
NI1940   NI        0.625625    0.469375    0.344375     0.004307
NI1941   NI        0.656875    0.438125    0.344375     0.004307
NI1942   NI        0.656875    0.469375    0.313125     0.004307
NI1943   NI        0.688125    0.438125    0.313125     0.004307
NI1944   NI        0.688125    0.469375    0.344375     0.004307
NI1945   NI        0.719375    0.438125    0.344375     0.004307
NI1946   NI        0.719375    0.469375    0.313125     0.004307
NI1947   NI        0.750625    0.438125    0.313125     0.004307
NI1948   NI        0.750625    0.469375    0.344375     0.004307
NI1949   NI        0.781875    0.438125    0.344375     0.004307
NI1950   NI        0.781875    0.469375    0.313125     0.004307
NI1951   NI        0.813125    0.438125    0.313125     0.004307
NI1952   NI        0.813125    0.469375    0.344375     0.004307
NI1953   NI        0.844375    0.438125    0.344375     0.004307
NI1954   NI        0.844375    0.469375    0.313125     0.004307
NI1955   NI        0.031875    0.500625    0.344375     0.004307
NI1956   NI        0.031875    0.531875    0.313125     0.004307
NI1957   NI        0.063125    0.500625    0.313125     0.004307
NI1958   NI        0.063125    0.531875    0.344375     0.004307
NI1959   NI        0.094375    0.500625    0.344375     0.004307
NI1960   NI        0.094375    0.531875    0.313125     0.004307
NI1961   NI        0.125625    0.500625    0.313125     0.004307
NI1962   NI        0.125625    0.531875    0.344375     0.004307
NI1963   NI        0.156875    0.500625    0.344375     0.004307
NI1964   NI        0.156875    0.531875    0.313125     0.004307
NI1965   NI        0.188125    0.500625    0.313125     0.004307
NI1966   NI        0.188125    0.531875    0.344375     0.004307
NI1967   NI        0.219375    0.500625    0.344375     0.004307
NI1968   NI        0.219375    0.531875    0.313125     0.004307
NI1969   NI        0.250625    0.500625    0.313125     0.004307
NI1970   NI        0.250625    0.531875    0.344375     0.004307
NI1971   NI        0.281875    0.500625    0.344375     0.004307
NI1972   NI        0.281875    0.531875    0.313125     0.004307
NI1973   NI        0.313125    0.500625    0.313125     0.004307
NI1974   NI        0.313125    0.531875    0.344375     0.004307
NI1975   NI        0.344375    0.500625    0.344375     0.004307
NI1976   NI        0.344375    0.531875    0.313125     0.004307
NI1977   NI        0.375625    0.500625    0.313125     0.004307
NI1978   NI        0.375625    0.531875    0.344375     0.004307
NI1979   NI        0.406875    0.500625    0.344375     0.004307
NI1980   NI        0.406875    0.531875    0.313125     0.004307
NI1981   NI        0.438125    0.500625    0.313125     0.004307
NI1982   NI        0.438125    0.531875    0.344375     0.004307
NI1983   NI        0.469375    0.500625    0.344375     0.004307
NI1984   NI        0.469375    0.531875    0.313125     0.004307
NI1985   NI        0.500625    0.500625    0.313125     0.004307
NI1986   NI        0.500625    0.531875    0.344375     0.004307
NI1987   NI        0.531875    0.500625    0.344375     0.004307
NI1988   NI        0.531875    0.531875    0.313125     0.004307
NI1989   NI        0.563125    0.500625    0.313125     0.004307
NI1990   NI        0.563125    0.531875    0.344375     0.004307
NI1991   NI        0.594375    0.500625    0.344375     0.004307
NI1992   NI        0.594375    0.531875    0.313125     0.004307
NI1993   NI        0.625625    0.500625    0.313125     0.004307
NI1994   NI        0.625625    0.531875    0.344375     0.004307
NI1995   NI        0.656875    0.500625    0.344375     0.004307
NI1996   NI        0.656875    0.531875    0.313125     0.004307
NI1997   NI        0.688125    0.500625    0.313125     0.004307
NI1998   NI        0.688125    0.531875    0.344375     0.004307
NI1999   NI        0.719375    0.500625    0.344375     0.004307
NI2000   NI        0.719375    0.531875    0.313125     0.004307
NI2001   NI        0.750625    0.500625    0.313125     0.004307
NI2002   NI        0.750625    0.531875    0.344375     0.004307
NI2003   NI        0.781875    0.500625    0.344375     0.004307
NI2004   NI        0.781875    0.531875    0.313125     0.004307
NI2005   NI        0.813125    0.500625    0.313125     0.004307
NI2006   NI        0.813125    0.531875    0.344375     0.004307
NI2007   NI        0.844375    0.500625    0.344375     0.004307
NI2008   NI        0.844375    0.531875    0.313125     0.004307
NI2009   NI        0.031875    0.563125    0.344375     0.004307
NI2010   NI        0.063125    0.563125    0.313125     0.004307
NI2011   NI        0.063125    0.594375    0.344375     0.004307
NI2012   NI        0.094375    0.563125    0.344375     0.004307
NI2013   NI        0.094375    0.594375    0.313125     0.004307
NI2014   NI        0.125625    0.563125    0.313125     0.004307
NI2015   NI        0.125625    0.594375    0.344375     0.004307
NI2016   NI        0.156875    0.563125    0.344375     0.004307
NI2017   NI        0.156875    0.594375    0.313125     0.004307
NI2018   NI        0.188125    0.563125    0.313125     0.004307
NI2019   NI        0.188125    0.594375    0.344375     0.004307
NI2020   NI        0.219375    0.563125    0.344375     0.004307
NI2021   NI        0.219375    0.594375    0.313125     0.004307
NI2022   NI        0.250625    0.563125    0.313125     0.004307
NI2023   NI        0.250625    0.594375    0.344375     0.004307
NI2024   NI        0.281875    0.563125    0.344375     0.004307
NI2025   NI        0.281875    0.594375    0.313125     0.004307
NI2026   NI        0.313125    0.563125    0.313125     0.004307
NI2027   NI        0.313125    0.594375    0.344375     0.004307
NI2028   NI        0.344375    0.563125    0.344375     0.004307
NI2029   NI        0.344375    0.594375    0.313125     0.004307
NI2030   NI        0.375625    0.563125    0.313125     0.004307
NI2031   NI        0.375625    0.594375    0.344375     0.004307
NI2032   NI        0.406875    0.563125    0.344375     0.004307
NI2033   NI        0.406875    0.594375    0.313125     0.004307
NI2034   NI        0.438125    0.563125    0.313125     0.004307
NI2035   NI        0.438125    0.594375    0.344375     0.004307
NI2036   NI        0.469375    0.563125    0.344375     0.004307
NI2037   NI        0.469375    0.594375    0.313125     0.004307
NI2038   NI        0.500625    0.563125    0.313125     0.004307
NI2039   NI        0.500625    0.594375    0.344375     0.004307
NI2040   NI        0.531875    0.563125    0.344375     0.004307
NI2041   NI        0.531875    0.594375    0.313125     0.004307
NI2042   NI        0.563125    0.563125    0.313125     0.004307
NI2043   NI        0.563125    0.594375    0.344375     0.004307
NI2044   NI        0.594375    0.563125    0.344375     0.004307
NI2045   NI        0.594375    0.594375    0.313125     0.004307
NI2046   NI        0.625625    0.563125    0.313125     0.004307
NI2047   NI        0.625625    0.594375    0.344375     0.004307
NI2048   NI        0.656875    0.563125    0.344375     0.004307
NI2049   NI        0.656875    0.594375    0.313125     0.004307
NI2050   NI        0.688125    0.563125    0.313125     0.004307
NI2051   NI        0.688125    0.594375    0.344375     0.004307
NI2052   NI        0.719375    0.563125    0.344375     0.004307
NI2053   NI        0.719375    0.594375    0.313125     0.004307
NI2054   NI        0.750625    0.563125    0.313125     0.004307
NI2055   NI        0.750625    0.594375    0.344375     0.004307
NI2056   NI        0.781875    0.563125    0.344375     0.004307
NI2057   NI        0.781875    0.594375    0.313125     0.004307
NI2058   NI        0.813125    0.563125    0.313125     0.004307
NI2059   NI        0.813125    0.594375    0.344375     0.004307
NI2060   NI        0.844375    0.563125    0.344375     0.004307
NI2061   NI        0.063125    0.625625    0.313125     0.004307
NI2062   NI        0.094375    0.625625    0.344375     0.004307
NI2063   NI        0.094375    0.656875    0.313125     0.004307
NI2064   NI        0.125625    0.625625    0.313125     0.004307
NI2065   NI        0.125625    0.656875    0.344375     0.004307
NI2066   NI        0.156875    0.625625    0.344375     0.004307
NI2067   NI        0.156875    0.656875    0.313125     0.004307
NI2068   NI        0.188125    0.625625    0.313125     0.004307
NI2069   NI        0.188125    0.656875    0.344375     0.004307
NI2070   NI        0.219375    0.625625    0.344375     0.004307
NI2071   NI        0.219375    0.656875    0.313125     0.004307
NI2072   NI        0.250625    0.625625    0.313125     0.004307
NI2073   NI        0.250625    0.656875    0.344375     0.004307
NI2074   NI        0.281875    0.625625    0.344375     0.004307
NI2075   NI        0.281875    0.656875    0.313125     0.004307
NI2076   NI        0.313125    0.625625    0.313125     0.004307
NI2077   NI        0.313125    0.656875    0.344375     0.004307
NI2078   NI        0.344375    0.625625    0.344375     0.004307
NI2079   NI        0.344375    0.656875    0.313125     0.004307
NI2080   NI        0.375625    0.625625    0.313125     0.004307
NI2081   NI        0.375625    0.656875    0.344375     0.004307
NI2082   NI        0.406875    0.625625    0.344375     0.004307
NI2083   NI        0.406875    0.656875    0.313125     0.004307
NI2084   NI        0.438125    0.625625    0.313125     0.004307
NI2085   NI        0.438125    0.656875    0.344375     0.004307
NI2086   NI        0.469375    0.625625    0.344375     0.004307
NI2087   NI        0.469375    0.656875    0.313125     0.004307
NI2088   NI        0.500625    0.625625    0.313125     0.004307
NI2089   NI        0.500625    0.656875    0.344375     0.004307
NI2090   NI        0.531875    0.625625    0.344375     0.004307
NI2091   NI        0.531875    0.656875    0.313125     0.004307
NI2092   NI        0.563125    0.625625    0.313125     0.004307
NI2093   NI        0.563125    0.656875    0.344375     0.004307
NI2094   NI        0.594375    0.625625    0.344375     0.004307
NI2095   NI        0.594375    0.656875    0.313125     0.004307
NI2096   NI        0.625625    0.625625    0.313125     0.004307
NI2097   NI        0.625625    0.656875    0.344375     0.004307
NI2098   NI        0.656875    0.625625    0.344375     0.004307
NI2099   NI        0.656875    0.656875    0.313125     0.004307
NI2100   NI        0.688125    0.625625    0.313125     0.004307
NI2101   NI        0.688125    0.656875    0.344375     0.004307
NI2102   NI        0.719375    0.625625    0.344375     0.004307
NI2103   NI        0.719375    0.656875    0.313125     0.004307
NI2104   NI        0.750625    0.625625    0.313125     0.004307
NI2105   NI        0.750625    0.656875    0.344375     0.004307
NI2106   NI        0.781875    0.625625    0.344375     0.004307
NI2107   NI        0.781875    0.656875    0.313125     0.004307
NI2108   NI        0.813125    0.625625    0.313125     0.004307
NI2109   NI        0.094375    0.688125    0.344375     0.004307
NI2110   NI        0.125625    0.688125    0.313125     0.004307
NI2111   NI        0.125625    0.719375    0.344375     0.004307
NI2112   NI        0.156875    0.688125    0.344375     0.004307
NI2113   NI        0.156875    0.719375    0.313125     0.004307
NI2114   NI        0.188125    0.688125    0.313125     0.004307
NI2115   NI        0.188125    0.719375    0.344375     0.004307
NI2116   NI        0.219375    0.688125    0.344375     0.004307
NI2117   NI        0.219375    0.719375    0.313125     0.004307
NI2118   NI        0.250625    0.688125    0.313125     0.004307
NI2119   NI        0.250625    0.719375    0.344375     0.004307
NI2120   NI        0.281875    0.688125    0.344375     0.004307
NI2121   NI        0.281875    0.719375    0.313125     0.004307
NI2122   NI        0.313125    0.688125    0.313125     0.004307
NI2123   NI        0.313125    0.719375    0.344375     0.004307
NI2124   NI        0.344375    0.688125    0.344375     0.004307
NI2125   NI        0.344375    0.719375    0.313125     0.004307
NI2126   NI        0.375625    0.688125    0.313125     0.004307
NI2127   NI        0.375625    0.719375    0.344375     0.004307
NI2128   NI        0.406875    0.688125    0.344375     0.004307
NI2129   NI        0.406875    0.719375    0.313125     0.004307
NI2130   NI        0.438125    0.688125    0.313125     0.004307
NI2131   NI        0.438125    0.719375    0.344375     0.004307
NI2132   NI        0.469375    0.688125    0.344375     0.004307
NI2133   NI        0.469375    0.719375    0.313125     0.004307
NI2134   NI        0.500625    0.688125    0.313125     0.004307
NI2135   NI        0.500625    0.719375    0.344375     0.004307
NI2136   NI        0.531875    0.688125    0.344375     0.004307
NI2137   NI        0.531875    0.719375    0.313125     0.004307
NI2138   NI        0.563125    0.688125    0.313125     0.004307
NI2139   NI        0.563125    0.719375    0.344375     0.004307
NI2140   NI        0.594375    0.688125    0.344375     0.004307
NI2141   NI        0.594375    0.719375    0.313125     0.004307
NI2142   NI        0.625625    0.688125    0.313125     0.004307
NI2143   NI        0.625625    0.719375    0.344375     0.004307
NI2144   NI        0.656875    0.688125    0.344375     0.004307
NI2145   NI        0.656875    0.719375    0.313125     0.004307
NI2146   NI        0.688125    0.688125    0.313125     0.004307
NI2147   NI        0.688125    0.719375    0.344375     0.004307
NI2148   NI        0.719375    0.688125    0.344375     0.004307
NI2149   NI        0.719375    0.719375    0.313125     0.004307
NI2150   NI        0.750625    0.688125    0.313125     0.004307
NI2151   NI        0.750625    0.719375    0.344375     0.004307
NI2152   NI        0.781875    0.688125    0.344375     0.004307
NI2153   NI        0.156875    0.750625    0.344375     0.004307
NI2154   NI        0.188125    0.750625    0.313125     0.004307
NI2155   NI        0.188125    0.781875    0.344375     0.004307
NI2156   NI        0.219375    0.750625    0.344375     0.004307
NI2157   NI        0.219375    0.781875    0.313125     0.004307
NI2158   NI        0.250625    0.750625    0.313125     0.004307
NI2159   NI        0.250625    0.781875    0.344375     0.004307
NI2160   NI        0.281875    0.750625    0.344375     0.004307
NI2161   NI        0.281875    0.781875    0.313125     0.004307
NI2162   NI        0.313125    0.750625    0.313125     0.004307
NI2163   NI        0.313125    0.781875    0.344375     0.004307
NI2164   NI        0.344375    0.750625    0.344375     0.004307
NI2165   NI        0.344375    0.781875    0.313125     0.004307
NI2166   NI        0.375625    0.750625    0.313125     0.004307
NI2167   NI        0.375625    0.781875    0.344375     0.004307
NI2168   NI        0.406875    0.750625    0.344375     0.004307
NI2169   NI        0.406875    0.781875    0.313125     0.004307
NI2170   NI        0.438125    0.750625    0.313125     0.004307
NI2171   NI        0.438125    0.781875    0.344375     0.004307
NI2172   NI        0.469375    0.750625    0.344375     0.004307
NI2173   NI        0.469375    0.781875    0.313125     0.004307
NI2174   NI        0.500625    0.750625    0.313125     0.004307
NI2175   NI        0.500625    0.781875    0.344375     0.004307
NI2176   NI        0.531875    0.750625    0.344375     0.004307
NI2177   NI        0.531875    0.781875    0.313125     0.004307
NI2178   NI        0.563125    0.750625    0.313125     0.004307
NI2179   NI        0.563125    0.781875    0.344375     0.004307
NI2180   NI        0.594375    0.750625    0.344375     0.004307
NI2181   NI        0.594375    0.781875    0.313125     0.004307
NI2182   NI        0.625625    0.750625    0.313125     0.004307
NI2183   NI        0.625625    0.781875    0.344375     0.004307
NI2184   NI        0.656875    0.750625    0.344375     0.004307
NI2185   NI        0.656875    0.781875    0.313125     0.004307
NI2186   NI        0.688125    0.750625    0.313125     0.004307
NI2187   NI        0.688125    0.781875    0.344375     0.004307
NI2188   NI        0.719375    0.750625    0.344375     0.004307
NI2189   NI        0.250625    0.813125    0.313125     0.004307
NI2190   NI        0.281875    0.813125    0.344375     0.004307
NI2191   NI        0.313125    0.813125    0.313125     0.004307
NI2192   NI        0.313125    0.844375    0.344375     0.004307
NI2193   NI        0.344375    0.813125    0.344375     0.004307
NI2194   NI        0.344375    0.844375    0.313125     0.004307
NI2195   NI        0.375625    0.813125    0.313125     0.004307
NI2196   NI        0.375625    0.844375    0.344375     0.004307
NI2197   NI        0.406875    0.813125    0.344375     0.004307
NI2198   NI        0.406875    0.844375    0.313125     0.004307
NI2199   NI        0.438125    0.813125    0.313125     0.004307
NI2200   NI        0.438125    0.844375    0.344375     0.004307
NI2201   NI        0.469375    0.813125    0.344375     0.004307
NI2202   NI        0.469375    0.844375    0.313125     0.004307
NI2203   NI        0.500625    0.813125    0.313125     0.004307
NI2204   NI        0.500625    0.844375    0.344375     0.004307
NI2205   NI        0.531875    0.813125    0.344375     0.004307
NI2206   NI        0.531875    0.844375    0.313125     0.004307
NI2207   NI        0.563125    0.813125    0.313125     0.004307
NI2208   NI        0.563125    0.844375    0.344375     0.004307
NI2209   NI        0.594375    0.813125    0.344375     0.004307
NI2210   NI        0.625625    0.813125    0.313125     0.004307
NI2211   NI        0.281875    0.031875    0.375625     0.004307
NI2212   NI        0.313125    0.031875    0.406875     0.004307
NI2213   NI        0.344375    0.031875    0.375625     0.004307
NI2214   NI        0.375625    0.031875    0.406875     0.004307
NI2215   NI        0.406875    0.000625    0.406875     0.004307
NI2216   NI        0.406875    0.031875    0.375625     0.004307
NI2217   NI        0.438125    0.000625    0.375625     0.004307
NI2218   NI        0.438125    0.031875    0.406875     0.004307
NI2219   NI        0.469375    0.000625    0.406875     0.004307
NI2220   NI        0.469375    0.031875    0.375625     0.004307
NI2221   NI        0.500625    0.031875    0.406875     0.004307
NI2222   NI        0.531875    0.031875    0.375625     0.004307
NI2223   NI        0.563125    0.031875    0.406875     0.004307
NI2224   NI        0.594375    0.031875    0.375625     0.004307
NI2225   NI        0.188125    0.094375    0.406875     0.004307
NI2226   NI        0.219375    0.063125    0.406875     0.004307
NI2227   NI        0.219375    0.094375    0.375625     0.004307
NI2228   NI        0.250625    0.063125    0.375625     0.004307
NI2229   NI        0.250625    0.094375    0.406875     0.004307
NI2230   NI        0.281875    0.063125    0.406875     0.004307
NI2231   NI        0.281875    0.094375    0.375625     0.004307
NI2232   NI        0.313125    0.063125    0.375625     0.004307
NI2233   NI        0.313125    0.094375    0.406875     0.004307
NI2234   NI        0.344375    0.063125    0.406875     0.004307
NI2235   NI        0.344375    0.094375    0.375625     0.004307
NI2236   NI        0.375625    0.063125    0.375625     0.004307
NI2237   NI        0.375625    0.094375    0.406875     0.004307
NI2238   NI        0.406875    0.063125    0.406875     0.004307
NI2239   NI        0.406875    0.094375    0.375625     0.004307
NI2240   NI        0.438125    0.063125    0.375625     0.004307
NI2241   NI        0.438125    0.094375    0.406875     0.004307
NI2242   NI        0.469375    0.063125    0.406875     0.004307
NI2243   NI        0.469375    0.094375    0.375625     0.004307
NI2244   NI        0.500625    0.063125    0.375625     0.004307
NI2245   NI        0.500625    0.094375    0.406875     0.004307
NI2246   NI        0.531875    0.063125    0.406875     0.004307
NI2247   NI        0.531875    0.094375    0.375625     0.004307
NI2248   NI        0.563125    0.063125    0.375625     0.004307
NI2249   NI        0.563125    0.094375    0.406875     0.004307
NI2250   NI        0.594375    0.063125    0.406875     0.004307
NI2251   NI        0.594375    0.094375    0.375625     0.004307
NI2252   NI        0.625625    0.063125    0.375625     0.004307
NI2253   NI        0.625625    0.094375    0.406875     0.004307
NI2254   NI        0.656875    0.063125    0.406875     0.004307
NI2255   NI        0.656875    0.094375    0.375625     0.004307
NI2256   NI        0.688125    0.094375    0.406875     0.004307
NI2257   NI        0.125625    0.156875    0.406875     0.004307
NI2258   NI        0.156875    0.125625    0.406875     0.004307
NI2259   NI        0.156875    0.156875    0.375625     0.004307
NI2260   NI        0.188125    0.125625    0.375625     0.004307
NI2261   NI        0.188125    0.156875    0.406875     0.004307
NI2262   NI        0.219375    0.125625    0.406875     0.004307
NI2263   NI        0.219375    0.156875    0.375625     0.004307
NI2264   NI        0.250625    0.125625    0.375625     0.004307
NI2265   NI        0.250625    0.156875    0.406875     0.004307
NI2266   NI        0.281875    0.125625    0.406875     0.004307
NI2267   NI        0.281875    0.156875    0.375625     0.004307
NI2268   NI        0.313125    0.125625    0.375625     0.004307
NI2269   NI        0.313125    0.156875    0.406875     0.004307
NI2270   NI        0.344375    0.125625    0.406875     0.004307
NI2271   NI        0.344375    0.156875    0.375625     0.004307
NI2272   NI        0.375625    0.125625    0.375625     0.004307
NI2273   NI        0.375625    0.156875    0.406875     0.004307
NI2274   NI        0.406875    0.125625    0.406875     0.004307
NI2275   NI        0.406875    0.156875    0.375625     0.004307
NI2276   NI        0.438125    0.125625    0.375625     0.004307
NI2277   NI        0.438125    0.156875    0.406875     0.004307
NI2278   NI        0.469375    0.125625    0.406875     0.004307
NI2279   NI        0.469375    0.156875    0.375625     0.004307
NI2280   NI        0.500625    0.125625    0.375625     0.004307
NI2281   NI        0.500625    0.156875    0.406875     0.004307
NI2282   NI        0.531875    0.125625    0.406875     0.004307
NI2283   NI        0.531875    0.156875    0.375625     0.004307
NI2284   NI        0.563125    0.125625    0.375625     0.004307
NI2285   NI        0.563125    0.156875    0.406875     0.004307
NI2286   NI        0.594375    0.125625    0.406875     0.004307
NI2287   NI        0.594375    0.156875    0.375625     0.004307
NI2288   NI        0.625625    0.125625    0.375625     0.004307
NI2289   NI        0.625625    0.156875    0.406875     0.004307
NI2290   NI        0.656875    0.125625    0.406875     0.004307
NI2291   NI        0.656875    0.156875    0.375625     0.004307
NI2292   NI        0.688125    0.125625    0.375625     0.004307
NI2293   NI        0.688125    0.156875    0.406875     0.004307
NI2294   NI        0.719375    0.125625    0.406875     0.004307
NI2295   NI        0.719375    0.156875    0.375625     0.004307
NI2296   NI        0.750625    0.156875    0.406875     0.004307
NI2297   NI        0.063125    0.219375    0.406875     0.004307
NI2298   NI        0.094375    0.188125    0.406875     0.004307
NI2299   NI        0.094375    0.219375    0.375625     0.004307
NI2300   NI        0.125625    0.188125    0.375625     0.004307
NI2301   NI        0.125625    0.219375    0.406875     0.004307
NI2302   NI        0.156875    0.188125    0.406875     0.004307
NI2303   NI        0.156875    0.219375    0.375625     0.004307
NI2304   NI        0.188125    0.188125    0.375625     0.004307
NI2305   NI        0.188125    0.219375    0.406875     0.004307
NI2306   NI        0.219375    0.188125    0.406875     0.004307
NI2307   NI        0.219375    0.219375    0.375625     0.004307
NI2308   NI        0.250625    0.188125    0.375625     0.004307
NI2309   NI        0.250625    0.219375    0.406875     0.004307
NI2310   NI        0.281875    0.188125    0.406875     0.004307
NI2311   NI        0.281875    0.219375    0.375625     0.004307
NI2312   NI        0.313125    0.188125    0.375625     0.004307
NI2313   NI        0.313125    0.219375    0.406875     0.004307
NI2314   NI        0.344375    0.188125    0.406875     0.004307
NI2315   NI        0.344375    0.219375    0.375625     0.004307
NI2316   NI        0.375625    0.188125    0.375625     0.004307
NI2317   NI        0.375625    0.219375    0.406875     0.004307
NI2318   NI        0.406875    0.188125    0.406875     0.004307
NI2319   NI        0.406875    0.219375    0.375625     0.004307
NI2320   NI        0.438125    0.188125    0.375625     0.004307
NI2321   NI        0.438125    0.219375    0.406875     0.004307
NI2322   NI        0.469375    0.188125    0.406875     0.004307
NI2323   NI        0.469375    0.219375    0.375625     0.004307
NI2324   NI        0.500625    0.188125    0.375625     0.004307
NI2325   NI        0.500625    0.219375    0.406875     0.004307
NI2326   NI        0.531875    0.188125    0.406875     0.004307
NI2327   NI        0.531875    0.219375    0.375625     0.004307
NI2328   NI        0.563125    0.188125    0.375625     0.004307
NI2329   NI        0.563125    0.219375    0.406875     0.004307
NI2330   NI        0.594375    0.188125    0.406875     0.004307
NI2331   NI        0.594375    0.219375    0.375625     0.004307
NI2332   NI        0.625625    0.188125    0.375625     0.004307
NI2333   NI        0.625625    0.219375    0.406875     0.004307
NI2334   NI        0.656875    0.188125    0.406875     0.004307
NI2335   NI        0.656875    0.219375    0.375625     0.004307
NI2336   NI        0.688125    0.188125    0.375625     0.004307
NI2337   NI        0.688125    0.219375    0.406875     0.004307
NI2338   NI        0.719375    0.188125    0.406875     0.004307
NI2339   NI        0.719375    0.219375    0.375625     0.004307
NI2340   NI        0.750625    0.188125    0.375625     0.004307
NI2341   NI        0.750625    0.219375    0.406875     0.004307
NI2342   NI        0.781875    0.188125    0.406875     0.004307
NI2343   NI        0.781875    0.219375    0.375625     0.004307
NI2344   NI        0.813125    0.219375    0.406875     0.004307
NI2345   NI        0.031875    0.281875    0.375625     0.004307
NI2346   NI        0.063125    0.250625    0.375625     0.004307
NI2347   NI        0.063125    0.281875    0.406875     0.004307
NI2348   NI        0.094375    0.250625    0.406875     0.004307
NI2349   NI        0.094375    0.281875    0.375625     0.004307
NI2350   NI        0.125625    0.250625    0.375625     0.004307
NI2351   NI        0.125625    0.281875    0.406875     0.004307
NI2352   NI        0.156875    0.250625    0.406875     0.004307
NI2353   NI        0.156875    0.281875    0.375625     0.004307
NI2354   NI        0.188125    0.250625    0.375625     0.004307
NI2355   NI        0.188125    0.281875    0.406875     0.004307
NI2356   NI        0.219375    0.250625    0.406875     0.004307
NI2357   NI        0.219375    0.281875    0.375625     0.004307
NI2358   NI        0.250625    0.250625    0.375625     0.004307
NI2359   NI        0.250625    0.281875    0.406875     0.004307
NI2360   NI        0.281875    0.250625    0.406875     0.004307
NI2361   NI        0.281875    0.281875    0.375625     0.004307
NI2362   NI        0.313125    0.250625    0.375625     0.004307
NI2363   NI        0.313125    0.281875    0.406875     0.004307
NI2364   NI        0.344375    0.250625    0.406875     0.004307
NI2365   NI        0.344375    0.281875    0.375625     0.004307
NI2366   NI        0.375625    0.250625    0.375625     0.004307
NI2367   NI        0.375625    0.281875    0.406875     0.004307
NI2368   NI        0.406875    0.250625    0.406875     0.004307
NI2369   NI        0.406875    0.281875    0.375625     0.004307
NI2370   NI        0.438125    0.250625    0.375625     0.004307
NI2371   NI        0.438125    0.281875    0.406875     0.004307
NI2372   NI        0.469375    0.250625    0.406875     0.004307
NI2373   NI        0.469375    0.281875    0.375625     0.004307
NI2374   NI        0.500625    0.250625    0.375625     0.004307
NI2375   NI        0.500625    0.281875    0.406875     0.004307
NI2376   NI        0.531875    0.250625    0.406875     0.004307
NI2377   NI        0.531875    0.281875    0.375625     0.004307
NI2378   NI        0.563125    0.250625    0.375625     0.004307
NI2379   NI        0.563125    0.281875    0.406875     0.004307
NI2380   NI        0.594375    0.250625    0.406875     0.004307
NI2381   NI        0.594375    0.281875    0.375625     0.004307
NI2382   NI        0.625625    0.250625    0.375625     0.004307
NI2383   NI        0.625625    0.281875    0.406875     0.004307
NI2384   NI        0.656875    0.250625    0.406875     0.004307
NI2385   NI        0.656875    0.281875    0.375625     0.004307
NI2386   NI        0.688125    0.250625    0.375625     0.004307
NI2387   NI        0.688125    0.281875    0.406875     0.004307
NI2388   NI        0.719375    0.250625    0.406875     0.004307
NI2389   NI        0.719375    0.281875    0.375625     0.004307
NI2390   NI        0.750625    0.250625    0.375625     0.004307
NI2391   NI        0.750625    0.281875    0.406875     0.004307
NI2392   NI        0.781875    0.250625    0.406875     0.004307
NI2393   NI        0.781875    0.281875    0.375625     0.004307
NI2394   NI        0.813125    0.250625    0.375625     0.004307
NI2395   NI        0.813125    0.281875    0.406875     0.004307
NI2396   NI        0.844375    0.281875    0.375625     0.004307
NI2397   NI        0.031875    0.313125    0.406875     0.004307
NI2398   NI        0.031875    0.344375    0.375625     0.004307
NI2399   NI        0.063125    0.313125    0.375625     0.004307
NI2400   NI        0.063125    0.344375    0.406875     0.004307
NI2401   NI        0.094375    0.313125    0.406875     0.004307
NI2402   NI        0.094375    0.344375    0.375625     0.004307
NI2403   NI        0.125625    0.313125    0.375625     0.004307
NI2404   NI        0.125625    0.344375    0.406875     0.004307
NI2405   NI        0.156875    0.313125    0.406875     0.004307
NI2406   NI        0.156875    0.344375    0.375625     0.004307
NI2407   NI        0.188125    0.313125    0.375625     0.004307
NI2408   NI        0.188125    0.344375    0.406875     0.004307
NI2409   NI        0.219375    0.313125    0.406875     0.004307
NI2410   NI        0.219375    0.344375    0.375625     0.004307
NI2411   NI        0.250625    0.313125    0.375625     0.004307
NI2412   NI        0.250625    0.344375    0.406875     0.004307
NI2413   NI        0.281875    0.313125    0.406875     0.004307
NI2414   NI        0.281875    0.344375    0.375625     0.004307
NI2415   NI        0.313125    0.313125    0.375625     0.004307
NI2416   NI        0.313125    0.344375    0.406875     0.004307
NI2417   NI        0.344375    0.313125    0.406875     0.004307
NI2418   NI        0.344375    0.344375    0.375625     0.004307
NI2419   NI        0.375625    0.313125    0.375625     0.004307
NI2420   NI        0.375625    0.344375    0.406875     0.004307
NI2421   NI        0.406875    0.313125    0.406875     0.004307
NI2422   NI        0.406875    0.344375    0.375625     0.004307
NI2423   NI        0.438125    0.313125    0.375625     0.004307
NI2424   NI        0.438125    0.344375    0.406875     0.004307
NI2425   NI        0.469375    0.313125    0.406875     0.004307
NI2426   NI        0.469375    0.344375    0.375625     0.004307
NI2427   NI        0.500625    0.313125    0.375625     0.004307
NI2428   NI        0.500625    0.344375    0.406875     0.004307
NI2429   NI        0.531875    0.313125    0.406875     0.004307
NI2430   NI        0.531875    0.344375    0.375625     0.004307
NI2431   NI        0.563125    0.313125    0.375625     0.004307
NI2432   NI        0.563125    0.344375    0.406875     0.004307
NI2433   NI        0.594375    0.313125    0.406875     0.004307
NI2434   NI        0.594375    0.344375    0.375625     0.004307
NI2435   NI        0.625625    0.313125    0.375625     0.004307
NI2436   NI        0.625625    0.344375    0.406875     0.004307
NI2437   NI        0.656875    0.313125    0.406875     0.004307
NI2438   NI        0.656875    0.344375    0.375625     0.004307
NI2439   NI        0.688125    0.313125    0.375625     0.004307
NI2440   NI        0.688125    0.344375    0.406875     0.004307
NI2441   NI        0.719375    0.313125    0.406875     0.004307
NI2442   NI        0.719375    0.344375    0.375625     0.004307
NI2443   NI        0.750625    0.313125    0.375625     0.004307
NI2444   NI        0.750625    0.344375    0.406875     0.004307
NI2445   NI        0.781875    0.313125    0.406875     0.004307
NI2446   NI        0.781875    0.344375    0.375625     0.004307
NI2447   NI        0.813125    0.313125    0.375625     0.004307
NI2448   NI        0.813125    0.344375    0.406875     0.004307
NI2449   NI        0.844375    0.313125    0.406875     0.004307
NI2450   NI        0.844375    0.344375    0.375625     0.004307
NI2451   NI        0.000625    0.406875    0.406875     0.004307
NI2452   NI        0.031875    0.375625    0.406875     0.004307
NI2453   NI        0.031875    0.406875    0.375625     0.004307
NI2454   NI        0.063125    0.375625    0.375625     0.004307
NI2455   NI        0.063125    0.406875    0.406875     0.004307
NI2456   NI        0.094375    0.375625    0.406875     0.004307
NI2457   NI        0.094375    0.406875    0.375625     0.004307
NI2458   NI        0.125625    0.375625    0.375625     0.004307
NI2459   NI        0.125625    0.406875    0.406875     0.004307
NI2460   NI        0.156875    0.375625    0.406875     0.004307
NI2461   NI        0.156875    0.406875    0.375625     0.004307
NI2462   NI        0.188125    0.375625    0.375625     0.004307
NI2463   NI        0.188125    0.406875    0.406875     0.004307
NI2464   NI        0.219375    0.375625    0.406875     0.004307
NI2465   NI        0.219375    0.406875    0.375625     0.004307
NI2466   NI        0.250625    0.375625    0.375625     0.004307
NI2467   NI        0.250625    0.406875    0.406875     0.004307
NI2468   NI        0.281875    0.375625    0.406875     0.004307
NI2469   NI        0.281875    0.406875    0.375625     0.004307
NI2470   NI        0.313125    0.375625    0.375625     0.004307
NI2471   NI        0.313125    0.406875    0.406875     0.004307
NI2472   NI        0.344375    0.375625    0.406875     0.004307
NI2473   NI        0.344375    0.406875    0.375625     0.004307
NI2474   NI        0.375625    0.375625    0.375625     0.004307
NI2475   NI        0.375625    0.406875    0.406875     0.004307
NI2476   NI        0.406875    0.375625    0.406875     0.004307
NI2477   NI        0.406875    0.406875    0.375625     0.004307
NI2478   NI        0.438125    0.375625    0.375625     0.004307
NI2479   NI        0.438125    0.406875    0.406875     0.004307
NI2480   NI        0.469375    0.375625    0.406875     0.004307
NI2481   NI        0.469375    0.406875    0.375625     0.004307
NI2482   NI        0.500625    0.375625    0.375625     0.004307
NI2483   NI        0.500625    0.406875    0.406875     0.004307
NI2484   NI        0.531875    0.375625    0.406875     0.004307
NI2485   NI        0.531875    0.406875    0.375625     0.004307
NI2486   NI        0.563125    0.375625    0.375625     0.004307
NI2487   NI        0.563125    0.406875    0.406875     0.004307
NI2488   NI        0.594375    0.375625    0.406875     0.004307
NI2489   NI        0.594375    0.406875    0.375625     0.004307
NI2490   NI        0.625625    0.375625    0.375625     0.004307
NI2491   NI        0.625625    0.406875    0.406875     0.004307
NI2492   NI        0.656875    0.375625    0.406875     0.004307
NI2493   NI        0.656875    0.406875    0.375625     0.004307
NI2494   NI        0.688125    0.375625    0.375625     0.004307
NI2495   NI        0.688125    0.406875    0.406875     0.004307
NI2496   NI        0.719375    0.375625    0.406875     0.004307
NI2497   NI        0.719375    0.406875    0.375625     0.004307
NI2498   NI        0.750625    0.375625    0.375625     0.004307
NI2499   NI        0.750625    0.406875    0.406875     0.004307
NI2500   NI        0.781875    0.375625    0.406875     0.004307
NI2501   NI        0.781875    0.406875    0.375625     0.004307
NI2502   NI        0.813125    0.375625    0.375625     0.004307
NI2503   NI        0.813125    0.406875    0.406875     0.004307
NI2504   NI        0.844375    0.375625    0.406875     0.004307
NI2505   NI        0.844375    0.406875    0.375625     0.004307
NI2506   NI        0.875625    0.406875    0.406875     0.004307
NI2507   NI        0.000625    0.438125    0.375625     0.004307
NI2508   NI        0.000625    0.469375    0.406875     0.004307
NI2509   NI        0.031875    0.438125    0.406875     0.004307
NI2510   NI        0.031875    0.469375    0.375625     0.004307
NI2511   NI        0.063125    0.438125    0.375625     0.004307
NI2512   NI        0.063125    0.469375    0.406875     0.004307
NI2513   NI        0.094375    0.438125    0.406875     0.004307
NI2514   NI        0.094375    0.469375    0.375625     0.004307
NI2515   NI        0.125625    0.438125    0.375625     0.004307
NI2516   NI        0.125625    0.469375    0.406875     0.004307
NI2517   NI        0.156875    0.438125    0.406875     0.004307
NI2518   NI        0.156875    0.469375    0.375625     0.004307
NI2519   NI        0.188125    0.438125    0.375625     0.004307
NI2520   NI        0.188125    0.469375    0.406875     0.004307
NI2521   NI        0.219375    0.438125    0.406875     0.004307
NI2522   NI        0.219375    0.469375    0.375625     0.004307
NI2523   NI        0.250625    0.438125    0.375625     0.004307
NI2524   NI        0.250625    0.469375    0.406875     0.004307
NI2525   NI        0.281875    0.438125    0.406875     0.004307
NI2526   NI        0.281875    0.469375    0.375625     0.004307
NI2527   NI        0.313125    0.438125    0.375625     0.004307
NI2528   NI        0.313125    0.469375    0.406875     0.004307
NI2529   NI        0.344375    0.438125    0.406875     0.004307
NI2530   NI        0.344375    0.469375    0.375625     0.004307
NI2531   NI        0.375625    0.438125    0.375625     0.004307
NI2532   NI        0.375625    0.469375    0.406875     0.004307
NI2533   NI        0.406875    0.438125    0.406875     0.004307
NI2534   NI        0.406875    0.469375    0.375625     0.004307
NI2535   NI        0.438125    0.438125    0.375625     0.004307
NI2536   NI        0.438125    0.469375    0.406875     0.004307
NI2537   NI        0.469375    0.438125    0.406875     0.004307
NI2538   NI        0.469375    0.469375    0.375625     0.004307
NI2539   NI        0.500625    0.438125    0.375625     0.004307
NI2540   NI        0.500625    0.469375    0.406875     0.004307
NI2541   NI        0.531875    0.438125    0.406875     0.004307
NI2542   NI        0.531875    0.469375    0.375625     0.004307
NI2543   NI        0.563125    0.438125    0.375625     0.004307
NI2544   NI        0.563125    0.469375    0.406875     0.004307
NI2545   NI        0.594375    0.438125    0.406875     0.004307
NI2546   NI        0.594375    0.469375    0.375625     0.004307
NI2547   NI        0.625625    0.438125    0.375625     0.004307
NI2548   NI        0.625625    0.469375    0.406875     0.004307
NI2549   NI        0.656875    0.438125    0.406875     0.004307
NI2550   NI        0.656875    0.469375    0.375625     0.004307
NI2551   NI        0.688125    0.438125    0.375625     0.004307
NI2552   NI        0.688125    0.469375    0.406875     0.004307
NI2553   NI        0.719375    0.438125    0.406875     0.004307
NI2554   NI        0.719375    0.469375    0.375625     0.004307
NI2555   NI        0.750625    0.438125    0.375625     0.004307
NI2556   NI        0.750625    0.469375    0.406875     0.004307
NI2557   NI        0.781875    0.438125    0.406875     0.004307
NI2558   NI        0.781875    0.469375    0.375625     0.004307
NI2559   NI        0.813125    0.438125    0.375625     0.004307
NI2560   NI        0.813125    0.469375    0.406875     0.004307
NI2561   NI        0.844375    0.438125    0.406875     0.004307
NI2562   NI        0.844375    0.469375    0.375625     0.004307
NI2563   NI        0.875625    0.438125    0.375625     0.004307
NI2564   NI        0.875625    0.469375    0.406875     0.004307
NI2565   NI        0.031875    0.500625    0.406875     0.004307
NI2566   NI        0.031875    0.531875    0.375625     0.004307
NI2567   NI        0.063125    0.500625    0.375625     0.004307
NI2568   NI        0.063125    0.531875    0.406875     0.004307
NI2569   NI        0.094375    0.500625    0.406875     0.004307
NI2570   NI        0.094375    0.531875    0.375625     0.004307
NI2571   NI        0.125625    0.500625    0.375625     0.004307
NI2572   NI        0.125625    0.531875    0.406875     0.004307
NI2573   NI        0.156875    0.500625    0.406875     0.004307
NI2574   NI        0.156875    0.531875    0.375625     0.004307
NI2575   NI        0.188125    0.500625    0.375625     0.004307
NI2576   NI        0.188125    0.531875    0.406875     0.004307
NI2577   NI        0.219375    0.500625    0.406875     0.004307
NI2578   NI        0.219375    0.531875    0.375625     0.004307
NI2579   NI        0.250625    0.500625    0.375625     0.004307
NI2580   NI        0.250625    0.531875    0.406875     0.004307
NI2581   NI        0.281875    0.500625    0.406875     0.004307
NI2582   NI        0.281875    0.531875    0.375625     0.004307
NI2583   NI        0.313125    0.500625    0.375625     0.004307
NI2584   NI        0.313125    0.531875    0.406875     0.004307
NI2585   NI        0.344375    0.500625    0.406875     0.004307
NI2586   NI        0.344375    0.531875    0.375625     0.004307
NI2587   NI        0.375625    0.500625    0.375625     0.004307
NI2588   NI        0.375625    0.531875    0.406875     0.004307
NI2589   NI        0.406875    0.500625    0.406875     0.004307
NI2590   NI        0.406875    0.531875    0.375625     0.004307
NI2591   NI        0.438125    0.500625    0.375625     0.004307
NI2592   NI        0.438125    0.531875    0.406875     0.004307
NI2593   NI        0.469375    0.500625    0.406875     0.004307
NI2594   NI        0.469375    0.531875    0.375625     0.004307
NI2595   NI        0.500625    0.500625    0.375625     0.004307
NI2596   NI        0.500625    0.531875    0.406875     0.004307
NI2597   NI        0.531875    0.500625    0.406875     0.004307
NI2598   NI        0.531875    0.531875    0.375625     0.004307
NI2599   NI        0.563125    0.500625    0.375625     0.004307
NI2600   NI        0.563125    0.531875    0.406875     0.004307
NI2601   NI        0.594375    0.500625    0.406875     0.004307
NI2602   NI        0.594375    0.531875    0.375625     0.004307
NI2603   NI        0.625625    0.500625    0.375625     0.004307
NI2604   NI        0.625625    0.531875    0.406875     0.004307
NI2605   NI        0.656875    0.500625    0.406875     0.004307
NI2606   NI        0.656875    0.531875    0.375625     0.004307
NI2607   NI        0.688125    0.500625    0.375625     0.004307
NI2608   NI        0.688125    0.531875    0.406875     0.004307
NI2609   NI        0.719375    0.500625    0.406875     0.004307
NI2610   NI        0.719375    0.531875    0.375625     0.004307
NI2611   NI        0.750625    0.500625    0.375625     0.004307
NI2612   NI        0.750625    0.531875    0.406875     0.004307
NI2613   NI        0.781875    0.500625    0.406875     0.004307
NI2614   NI        0.781875    0.531875    0.375625     0.004307
NI2615   NI        0.813125    0.500625    0.375625     0.004307
NI2616   NI        0.813125    0.531875    0.406875     0.004307
NI2617   NI        0.844375    0.500625    0.406875     0.004307
NI2618   NI        0.844375    0.531875    0.375625     0.004307
NI2619   NI        0.031875    0.563125    0.406875     0.004307
NI2620   NI        0.031875    0.594375    0.375625     0.004307
NI2621   NI        0.063125    0.563125    0.375625     0.004307
NI2622   NI        0.063125    0.594375    0.406875     0.004307
NI2623   NI        0.094375    0.563125    0.406875     0.004307
NI2624   NI        0.094375    0.594375    0.375625     0.004307
NI2625   NI        0.125625    0.563125    0.375625     0.004307
NI2626   NI        0.125625    0.594375    0.406875     0.004307
NI2627   NI        0.156875    0.563125    0.406875     0.004307
NI2628   NI        0.156875    0.594375    0.375625     0.004307
NI2629   NI        0.188125    0.563125    0.375625     0.004307
NI2630   NI        0.188125    0.594375    0.406875     0.004307
NI2631   NI        0.219375    0.563125    0.406875     0.004307
NI2632   NI        0.219375    0.594375    0.375625     0.004307
NI2633   NI        0.250625    0.563125    0.375625     0.004307
NI2634   NI        0.250625    0.594375    0.406875     0.004307
NI2635   NI        0.281875    0.563125    0.406875     0.004307
NI2636   NI        0.281875    0.594375    0.375625     0.004307
NI2637   NI        0.313125    0.563125    0.375625     0.004307
NI2638   NI        0.313125    0.594375    0.406875     0.004307
NI2639   NI        0.344375    0.563125    0.406875     0.004307
NI2640   NI        0.344375    0.594375    0.375625     0.004307
NI2641   NI        0.375625    0.563125    0.375625     0.004307
NI2642   NI        0.375625    0.594375    0.406875     0.004307
NI2643   NI        0.406875    0.563125    0.406875     0.004307
NI2644   NI        0.406875    0.594375    0.375625     0.004307
NI2645   NI        0.438125    0.563125    0.375625     0.004307
NI2646   NI        0.438125    0.594375    0.406875     0.004307
NI2647   NI        0.469375    0.563125    0.406875     0.004307
NI2648   NI        0.469375    0.594375    0.375625     0.004307
NI2649   NI        0.500625    0.563125    0.375625     0.004307
NI2650   NI        0.500625    0.594375    0.406875     0.004307
NI2651   NI        0.531875    0.563125    0.406875     0.004307
NI2652   NI        0.531875    0.594375    0.375625     0.004307
NI2653   NI        0.563125    0.563125    0.375625     0.004307
NI2654   NI        0.563125    0.594375    0.406875     0.004307
NI2655   NI        0.594375    0.563125    0.406875     0.004307
NI2656   NI        0.594375    0.594375    0.375625     0.004307
NI2657   NI        0.625625    0.563125    0.375625     0.004307
NI2658   NI        0.625625    0.594375    0.406875     0.004307
NI2659   NI        0.656875    0.563125    0.406875     0.004307
NI2660   NI        0.656875    0.594375    0.375625     0.004307
NI2661   NI        0.688125    0.563125    0.375625     0.004307
NI2662   NI        0.688125    0.594375    0.406875     0.004307
NI2663   NI        0.719375    0.563125    0.406875     0.004307
NI2664   NI        0.719375    0.594375    0.375625     0.004307
NI2665   NI        0.750625    0.563125    0.375625     0.004307
NI2666   NI        0.750625    0.594375    0.406875     0.004307
NI2667   NI        0.781875    0.563125    0.406875     0.004307
NI2668   NI        0.781875    0.594375    0.375625     0.004307
NI2669   NI        0.813125    0.563125    0.375625     0.004307
NI2670   NI        0.813125    0.594375    0.406875     0.004307
NI2671   NI        0.844375    0.563125    0.406875     0.004307
NI2672   NI        0.844375    0.594375    0.375625     0.004307
NI2673   NI        0.063125    0.625625    0.375625     0.004307
NI2674   NI        0.063125    0.656875    0.406875     0.004307
NI2675   NI        0.094375    0.625625    0.406875     0.004307
NI2676   NI        0.094375    0.656875    0.375625     0.004307
NI2677   NI        0.125625    0.625625    0.375625     0.004307
NI2678   NI        0.125625    0.656875    0.406875     0.004307
NI2679   NI        0.156875    0.625625    0.406875     0.004307
NI2680   NI        0.156875    0.656875    0.375625     0.004307
NI2681   NI        0.188125    0.625625    0.375625     0.004307
NI2682   NI        0.188125    0.656875    0.406875     0.004307
NI2683   NI        0.219375    0.625625    0.406875     0.004307
NI2684   NI        0.219375    0.656875    0.375625     0.004307
NI2685   NI        0.250625    0.625625    0.375625     0.004307
NI2686   NI        0.250625    0.656875    0.406875     0.004307
NI2687   NI        0.281875    0.625625    0.406875     0.004307
NI2688   NI        0.281875    0.656875    0.375625     0.004307
NI2689   NI        0.313125    0.625625    0.375625     0.004307
NI2690   NI        0.313125    0.656875    0.406875     0.004307
NI2691   NI        0.344375    0.625625    0.406875     0.004307
NI2692   NI        0.344375    0.656875    0.375625     0.004307
NI2693   NI        0.375625    0.625625    0.375625     0.004307
NI2694   NI        0.375625    0.656875    0.406875     0.004307
NI2695   NI        0.406875    0.625625    0.406875     0.004307
NI2696   NI        0.406875    0.656875    0.375625     0.004307
NI2697   NI        0.438125    0.625625    0.375625     0.004307
NI2698   NI        0.438125    0.656875    0.406875     0.004307
NI2699   NI        0.469375    0.625625    0.406875     0.004307
NI2700   NI        0.469375    0.656875    0.375625     0.004307
NI2701   NI        0.500625    0.625625    0.375625     0.004307
NI2702   NI        0.500625    0.656875    0.406875     0.004307
NI2703   NI        0.531875    0.625625    0.406875     0.004307
NI2704   NI        0.531875    0.656875    0.375625     0.004307
NI2705   NI        0.563125    0.625625    0.375625     0.004307
NI2706   NI        0.563125    0.656875    0.406875     0.004307
NI2707   NI        0.594375    0.625625    0.406875     0.004307
NI2708   NI        0.594375    0.656875    0.375625     0.004307
NI2709   NI        0.625625    0.625625    0.375625     0.004307
NI2710   NI        0.625625    0.656875    0.406875     0.004307
NI2711   NI        0.656875    0.625625    0.406875     0.004307
NI2712   NI        0.656875    0.656875    0.375625     0.004307
NI2713   NI        0.688125    0.625625    0.375625     0.004307
NI2714   NI        0.688125    0.656875    0.406875     0.004307
NI2715   NI        0.719375    0.625625    0.406875     0.004307
NI2716   NI        0.719375    0.656875    0.375625     0.004307
NI2717   NI        0.750625    0.625625    0.375625     0.004307
NI2718   NI        0.750625    0.656875    0.406875     0.004307
NI2719   NI        0.781875    0.625625    0.406875     0.004307
NI2720   NI        0.781875    0.656875    0.375625     0.004307
NI2721   NI        0.813125    0.625625    0.375625     0.004307
NI2722   NI        0.813125    0.656875    0.406875     0.004307
NI2723   NI        0.094375    0.688125    0.406875     0.004307
NI2724   NI        0.125625    0.688125    0.375625     0.004307
NI2725   NI        0.125625    0.719375    0.406875     0.004307
NI2726   NI        0.156875    0.688125    0.406875     0.004307
NI2727   NI        0.156875    0.719375    0.375625     0.004307
NI2728   NI        0.188125    0.688125    0.375625     0.004307
NI2729   NI        0.188125    0.719375    0.406875     0.004307
NI2730   NI        0.219375    0.688125    0.406875     0.004307
NI2731   NI        0.219375    0.719375    0.375625     0.004307
NI2732   NI        0.250625    0.688125    0.375625     0.004307
NI2733   NI        0.250625    0.719375    0.406875     0.004307
NI2734   NI        0.281875    0.688125    0.406875     0.004307
NI2735   NI        0.281875    0.719375    0.375625     0.004307
NI2736   NI        0.313125    0.688125    0.375625     0.004307
NI2737   NI        0.313125    0.719375    0.406875     0.004307
NI2738   NI        0.344375    0.688125    0.406875     0.004307
NI2739   NI        0.344375    0.719375    0.375625     0.004307
NI2740   NI        0.375625    0.688125    0.375625     0.004307
NI2741   NI        0.375625    0.719375    0.406875     0.004307
NI2742   NI        0.406875    0.688125    0.406875     0.004307
NI2743   NI        0.406875    0.719375    0.375625     0.004307
NI2744   NI        0.438125    0.688125    0.375625     0.004307
NI2745   NI        0.438125    0.719375    0.406875     0.004307
NI2746   NI        0.469375    0.688125    0.406875     0.004307
NI2747   NI        0.469375    0.719375    0.375625     0.004307
NI2748   NI        0.500625    0.688125    0.375625     0.004307
NI2749   NI        0.500625    0.719375    0.406875     0.004307
NI2750   NI        0.531875    0.688125    0.406875     0.004307
NI2751   NI        0.531875    0.719375    0.375625     0.004307
NI2752   NI        0.563125    0.688125    0.375625     0.004307
NI2753   NI        0.563125    0.719375    0.406875     0.004307
NI2754   NI        0.594375    0.688125    0.406875     0.004307
NI2755   NI        0.594375    0.719375    0.375625     0.004307
NI2756   NI        0.625625    0.688125    0.375625     0.004307
NI2757   NI        0.625625    0.719375    0.406875     0.004307
NI2758   NI        0.656875    0.688125    0.406875     0.004307
NI2759   NI        0.656875    0.719375    0.375625     0.004307
NI2760   NI        0.688125    0.688125    0.375625     0.004307
NI2761   NI        0.688125    0.719375    0.406875     0.004307
NI2762   NI        0.719375    0.688125    0.406875     0.004307
NI2763   NI        0.719375    0.719375    0.375625     0.004307
NI2764   NI        0.750625    0.688125    0.375625     0.004307
NI2765   NI        0.750625    0.719375    0.406875     0.004307
NI2766   NI        0.781875    0.688125    0.406875     0.004307
NI2767   NI        0.156875    0.750625    0.406875     0.004307
NI2768   NI        0.188125    0.750625    0.375625     0.004307
NI2769   NI        0.188125    0.781875    0.406875     0.004307
NI2770   NI        0.219375    0.750625    0.406875     0.004307
NI2771   NI        0.219375    0.781875    0.375625     0.004307
NI2772   NI        0.250625    0.750625    0.375625     0.004307
NI2773   NI        0.250625    0.781875    0.406875     0.004307
NI2774   NI        0.281875    0.750625    0.406875     0.004307
NI2775   NI        0.281875    0.781875    0.375625     0.004307
NI2776   NI        0.313125    0.750625    0.375625     0.004307
NI2777   NI        0.313125    0.781875    0.406875     0.004307
NI2778   NI        0.344375    0.750625    0.406875     0.004307
NI2779   NI        0.344375    0.781875    0.375625     0.004307
NI2780   NI        0.375625    0.750625    0.375625     0.004307
NI2781   NI        0.375625    0.781875    0.406875     0.004307
NI2782   NI        0.406875    0.750625    0.406875     0.004307
NI2783   NI        0.406875    0.781875    0.375625     0.004307
NI2784   NI        0.438125    0.750625    0.375625     0.004307
NI2785   NI        0.438125    0.781875    0.406875     0.004307
NI2786   NI        0.469375    0.750625    0.406875     0.004307
NI2787   NI        0.469375    0.781875    0.375625     0.004307
NI2788   NI        0.500625    0.750625    0.375625     0.004307
NI2789   NI        0.500625    0.781875    0.406875     0.004307
NI2790   NI        0.531875    0.750625    0.406875     0.004307
NI2791   NI        0.531875    0.781875    0.375625     0.004307
NI2792   NI        0.563125    0.750625    0.375625     0.004307
NI2793   NI        0.563125    0.781875    0.406875     0.004307
NI2794   NI        0.594375    0.750625    0.406875     0.004307
NI2795   NI        0.594375    0.781875    0.375625     0.004307
NI2796   NI        0.625625    0.750625    0.375625     0.004307
NI2797   NI        0.625625    0.781875    0.406875     0.004307
NI2798   NI        0.656875    0.750625    0.406875     0.004307
NI2799   NI        0.656875    0.781875    0.375625     0.004307
NI2800   NI        0.688125    0.750625    0.375625     0.004307
NI2801   NI        0.688125    0.781875    0.406875     0.004307
NI2802   NI        0.719375    0.750625    0.406875     0.004307
NI2803   NI        0.219375    0.813125    0.406875     0.004307
NI2804   NI        0.250625    0.813125    0.375625     0.004307
NI2805   NI        0.281875    0.813125    0.406875     0.004307
NI2806   NI        0.281875    0.844375    0.375625     0.004307
NI2807   NI        0.313125    0.813125    0.375625     0.004307
NI2808   NI        0.313125    0.844375    0.406875     0.004307
NI2809   NI        0.344375    0.813125    0.406875     0.004307
NI2810   NI        0.344375    0.844375    0.375625     0.004307
NI2811   NI        0.375625    0.813125    0.375625     0.004307
NI2812   NI        0.375625    0.844375    0.406875     0.004307
NI2813   NI        0.406875    0.813125    0.406875     0.004307
NI2814   NI        0.406875    0.844375    0.375625     0.004307
NI2815   NI        0.438125    0.813125    0.375625     0.004307
NI2816   NI        0.438125    0.844375    0.406875     0.004307
NI2817   NI        0.469375    0.813125    0.406875     0.004307
NI2818   NI        0.469375    0.844375    0.375625     0.004307
NI2819   NI        0.500625    0.813125    0.375625     0.004307
NI2820   NI        0.500625    0.844375    0.406875     0.004307
NI2821   NI        0.531875    0.813125    0.406875     0.004307
NI2822   NI        0.531875    0.844375    0.375625     0.004307
NI2823   NI        0.563125    0.813125    0.375625     0.004307
NI2824   NI        0.563125    0.844375    0.406875     0.004307
NI2825   NI        0.594375    0.813125    0.406875     0.004307
NI2826   NI        0.594375    0.844375    0.375625     0.004307
NI2827   NI        0.625625    0.813125    0.375625     0.004307
NI2828   NI        0.656875    0.813125    0.406875     0.004307
NI2829   NI        0.406875    0.875625    0.406875     0.004307
NI2830   NI        0.438125    0.875625    0.375625     0.004307
NI2831   NI        0.469375    0.875625    0.406875     0.004307
NI2832   NI        0.281875    0.031875    0.438125     0.004307
NI2833   NI        0.313125    0.031875    0.469375     0.004307
NI2834   NI        0.344375    0.031875    0.438125     0.004307
NI2835   NI        0.375625    0.000625    0.438125     0.004307
NI2836   NI        0.375625    0.031875    0.469375     0.004307
NI2837   NI        0.406875    0.000625    0.469375     0.004307
NI2838   NI        0.406875    0.031875    0.438125     0.004307
NI2839   NI        0.438125    0.000625    0.438125     0.004307
NI2840   NI        0.438125    0.031875    0.469375     0.004307
NI2841   NI        0.469375    0.000625    0.469375     0.004307
NI2842   NI        0.469375    0.031875    0.438125     0.004307
NI2843   NI        0.500625    0.000625    0.438125     0.004307
NI2844   NI        0.500625    0.031875    0.469375     0.004307
NI2845   NI        0.531875    0.031875    0.438125     0.004307
NI2846   NI        0.563125    0.031875    0.469375     0.004307
NI2847   NI        0.594375    0.031875    0.438125     0.004307
NI2848   NI        0.188125    0.094375    0.469375     0.004307
NI2849   NI        0.219375    0.063125    0.469375     0.004307
NI2850   NI        0.219375    0.094375    0.438125     0.004307
NI2851   NI        0.250625    0.063125    0.438125     0.004307
NI2852   NI        0.250625    0.094375    0.469375     0.004307
NI2853   NI        0.281875    0.063125    0.469375     0.004307
NI2854   NI        0.281875    0.094375    0.438125     0.004307
NI2855   NI        0.313125    0.063125    0.438125     0.004307
NI2856   NI        0.313125    0.094375    0.469375     0.004307
NI2857   NI        0.344375    0.063125    0.469375     0.004307
NI2858   NI        0.344375    0.094375    0.438125     0.004307
NI2859   NI        0.375625    0.063125    0.438125     0.004307
NI2860   NI        0.375625    0.094375    0.469375     0.004307
NI2861   NI        0.406875    0.063125    0.469375     0.004307
NI2862   NI        0.406875    0.094375    0.438125     0.004307
NI2863   NI        0.438125    0.063125    0.438125     0.004307
NI2864   NI        0.438125    0.094375    0.469375     0.004307
NI2865   NI        0.469375    0.063125    0.469375     0.004307
NI2866   NI        0.469375    0.094375    0.438125     0.004307
NI2867   NI        0.500625    0.063125    0.438125     0.004307
NI2868   NI        0.500625    0.094375    0.469375     0.004307
NI2869   NI        0.531875    0.063125    0.469375     0.004307
NI2870   NI        0.531875    0.094375    0.438125     0.004307
NI2871   NI        0.563125    0.063125    0.438125     0.004307
NI2872   NI        0.563125    0.094375    0.469375     0.004307
NI2873   NI        0.594375    0.063125    0.469375     0.004307
NI2874   NI        0.594375    0.094375    0.438125     0.004307
NI2875   NI        0.625625    0.063125    0.438125     0.004307
NI2876   NI        0.625625    0.094375    0.469375     0.004307
NI2877   NI        0.656875    0.063125    0.469375     0.004307
NI2878   NI        0.656875    0.094375    0.438125     0.004307
NI2879   NI        0.688125    0.094375    0.469375     0.004307
NI2880   NI        0.125625    0.125625    0.438125     0.004307
NI2881   NI        0.125625    0.156875    0.469375     0.004307
NI2882   NI        0.156875    0.125625    0.469375     0.004307
NI2883   NI        0.156875    0.156875    0.438125     0.004307
NI2884   NI        0.188125    0.125625    0.438125     0.004307
NI2885   NI        0.188125    0.156875    0.469375     0.004307
NI2886   NI        0.219375    0.125625    0.469375     0.004307
NI2887   NI        0.219375    0.156875    0.438125     0.004307
NI2888   NI        0.250625    0.125625    0.438125     0.004307
NI2889   NI        0.250625    0.156875    0.469375     0.004307
NI2890   NI        0.281875    0.125625    0.469375     0.004307
NI2891   NI        0.281875    0.156875    0.438125     0.004307
NI2892   NI        0.313125    0.125625    0.438125     0.004307
NI2893   NI        0.313125    0.156875    0.469375     0.004307
NI2894   NI        0.344375    0.125625    0.469375     0.004307
NI2895   NI        0.344375    0.156875    0.438125     0.004307
NI2896   NI        0.375625    0.125625    0.438125     0.004307
NI2897   NI        0.375625    0.156875    0.469375     0.004307
NI2898   NI        0.406875    0.125625    0.469375     0.004307
NI2899   NI        0.406875    0.156875    0.438125     0.004307
NI2900   NI        0.438125    0.125625    0.438125     0.004307
NI2901   NI        0.438125    0.156875    0.469375     0.004307
NI2902   NI        0.469375    0.125625    0.469375     0.004307
NI2903   NI        0.469375    0.156875    0.438125     0.004307
NI2904   NI        0.500625    0.125625    0.438125     0.004307
NI2905   NI        0.500625    0.156875    0.469375     0.004307
NI2906   NI        0.531875    0.125625    0.469375     0.004307
NI2907   NI        0.531875    0.156875    0.438125     0.004307
NI2908   NI        0.563125    0.125625    0.438125     0.004307
NI2909   NI        0.563125    0.156875    0.469375     0.004307
NI2910   NI        0.594375    0.125625    0.469375     0.004307
NI2911   NI        0.594375    0.156875    0.438125     0.004307
NI2912   NI        0.625625    0.125625    0.438125     0.004307
NI2913   NI        0.625625    0.156875    0.469375     0.004307
NI2914   NI        0.656875    0.125625    0.469375     0.004307
NI2915   NI        0.656875    0.156875    0.438125     0.004307
NI2916   NI        0.688125    0.125625    0.438125     0.004307
NI2917   NI        0.688125    0.156875    0.469375     0.004307
NI2918   NI        0.719375    0.125625    0.469375     0.004307
NI2919   NI        0.719375    0.156875    0.438125     0.004307
NI2920   NI        0.750625    0.125625    0.438125     0.004307
NI2921   NI        0.750625    0.156875    0.469375     0.004307
NI2922   NI        0.063125    0.219375    0.469375     0.004307
NI2923   NI        0.094375    0.188125    0.469375     0.004307
NI2924   NI        0.094375    0.219375    0.438125     0.004307
NI2925   NI        0.125625    0.188125    0.438125     0.004307
NI2926   NI        0.125625    0.219375    0.469375     0.004307
NI2927   NI        0.156875    0.188125    0.469375     0.004307
NI2928   NI        0.156875    0.219375    0.438125     0.004307
NI2929   NI        0.188125    0.188125    0.438125     0.004307
NI2930   NI        0.188125    0.219375    0.469375     0.004307
NI2931   NI        0.219375    0.188125    0.469375     0.004307
NI2932   NI        0.219375    0.219375    0.438125     0.004307
NI2933   NI        0.250625    0.188125    0.438125     0.004307
NI2934   NI        0.250625    0.219375    0.469375     0.004307
NI2935   NI        0.281875    0.188125    0.469375     0.004307
NI2936   NI        0.281875    0.219375    0.438125     0.004307
NI2937   NI        0.313125    0.188125    0.438125     0.004307
NI2938   NI        0.313125    0.219375    0.469375     0.004307
NI2939   NI        0.344375    0.188125    0.469375     0.004307
NI2940   NI        0.344375    0.219375    0.438125     0.004307
NI2941   NI        0.375625    0.188125    0.438125     0.004307
NI2942   NI        0.375625    0.219375    0.469375     0.004307
NI2943   NI        0.406875    0.188125    0.469375     0.004307
NI2944   NI        0.406875    0.219375    0.438125     0.004307
NI2945   NI        0.438125    0.188125    0.438125     0.004307
NI2946   NI        0.438125    0.219375    0.469375     0.004307
NI2947   NI        0.469375    0.188125    0.469375     0.004307
NI2948   NI        0.469375    0.219375    0.438125     0.004307
NI2949   NI        0.500625    0.188125    0.438125     0.004307
NI2950   NI        0.500625    0.219375    0.469375     0.004307
NI2951   NI        0.531875    0.188125    0.469375     0.004307
NI2952   NI        0.531875    0.219375    0.438125     0.004307
NI2953   NI        0.563125    0.188125    0.438125     0.004307
NI2954   NI        0.563125    0.219375    0.469375     0.004307
NI2955   NI        0.594375    0.188125    0.469375     0.004307
NI2956   NI        0.594375    0.219375    0.438125     0.004307
NI2957   NI        0.625625    0.188125    0.438125     0.004307
NI2958   NI        0.625625    0.219375    0.469375     0.004307
NI2959   NI        0.656875    0.188125    0.469375     0.004307
NI2960   NI        0.656875    0.219375    0.438125     0.004307
NI2961   NI        0.688125    0.188125    0.438125     0.004307
NI2962   NI        0.688125    0.219375    0.469375     0.004307
NI2963   NI        0.719375    0.188125    0.469375     0.004307
NI2964   NI        0.719375    0.219375    0.438125     0.004307
NI2965   NI        0.750625    0.188125    0.438125     0.004307
NI2966   NI        0.750625    0.219375    0.469375     0.004307
NI2967   NI        0.781875    0.188125    0.469375     0.004307
NI2968   NI        0.781875    0.219375    0.438125     0.004307
NI2969   NI        0.813125    0.219375    0.469375     0.004307
NI2970   NI        0.031875    0.281875    0.438125     0.004307
NI2971   NI        0.063125    0.250625    0.438125     0.004307
NI2972   NI        0.063125    0.281875    0.469375     0.004307
NI2973   NI        0.094375    0.250625    0.469375     0.004307
NI2974   NI        0.094375    0.281875    0.438125     0.004307
NI2975   NI        0.125625    0.250625    0.438125     0.004307
NI2976   NI        0.125625    0.281875    0.469375     0.004307
NI2977   NI        0.156875    0.250625    0.469375     0.004307
NI2978   NI        0.156875    0.281875    0.438125     0.004307
NI2979   NI        0.188125    0.250625    0.438125     0.004307
NI2980   NI        0.188125    0.281875    0.469375     0.004307
NI2981   NI        0.219375    0.250625    0.469375     0.004307
NI2982   NI        0.219375    0.281875    0.438125     0.004307
NI2983   NI        0.250625    0.250625    0.438125     0.004307
NI2984   NI        0.250625    0.281875    0.469375     0.004307
NI2985   NI        0.281875    0.250625    0.469375     0.004307
NI2986   NI        0.281875    0.281875    0.438125     0.004307
NI2987   NI        0.313125    0.250625    0.438125     0.004307
NI2988   NI        0.313125    0.281875    0.469375     0.004307
NI2989   NI        0.344375    0.250625    0.469375     0.004307
NI2990   NI        0.344375    0.281875    0.438125     0.004307
NI2991   NI        0.375625    0.250625    0.438125     0.004307
NI2992   NI        0.375625    0.281875    0.469375     0.004307
NI2993   NI        0.406875    0.250625    0.469375     0.004307
NI2994   NI        0.406875    0.281875    0.438125     0.004307
NI2995   NI        0.438125    0.250625    0.438125     0.004307
NI2996   NI        0.438125    0.281875    0.469375     0.004307
NI2997   NI        0.469375    0.250625    0.469375     0.004307
NI2998   NI        0.469375    0.281875    0.438125     0.004307
NI2999   NI        0.500625    0.250625    0.438125     0.004307
NI3000   NI        0.500625    0.281875    0.469375     0.004307
NI3001   NI        0.531875    0.250625    0.469375     0.004307
NI3002   NI        0.531875    0.281875    0.438125     0.004307
NI3003   NI        0.563125    0.250625    0.438125     0.004307
NI3004   NI        0.563125    0.281875    0.469375     0.004307
NI3005   NI        0.594375    0.250625    0.469375     0.004307
NI3006   NI        0.594375    0.281875    0.438125     0.004307
NI3007   NI        0.625625    0.250625    0.438125     0.004307
NI3008   NI        0.625625    0.281875    0.469375     0.004307
NI3009   NI        0.656875    0.250625    0.469375     0.004307
NI3010   NI        0.656875    0.281875    0.438125     0.004307
NI3011   NI        0.688125    0.250625    0.438125     0.004307
NI3012   NI        0.688125    0.281875    0.469375     0.004307
NI3013   NI        0.719375    0.250625    0.469375     0.004307
NI3014   NI        0.719375    0.281875    0.438125     0.004307
NI3015   NI        0.750625    0.250625    0.438125     0.004307
NI3016   NI        0.750625    0.281875    0.469375     0.004307
NI3017   NI        0.781875    0.250625    0.469375     0.004307
NI3018   NI        0.781875    0.281875    0.438125     0.004307
NI3019   NI        0.813125    0.250625    0.438125     0.004307
NI3020   NI        0.813125    0.281875    0.469375     0.004307
NI3021   NI        0.844375    0.281875    0.438125     0.004307
NI3022   NI        0.031875    0.313125    0.469375     0.004307
NI3023   NI        0.031875    0.344375    0.438125     0.004307
NI3024   NI        0.063125    0.313125    0.438125     0.004307
NI3025   NI        0.063125    0.344375    0.469375     0.004307
NI3026   NI        0.094375    0.313125    0.469375     0.004307
NI3027   NI        0.094375    0.344375    0.438125     0.004307
NI3028   NI        0.125625    0.313125    0.438125     0.004307
NI3029   NI        0.125625    0.344375    0.469375     0.004307
NI3030   NI        0.156875    0.313125    0.469375     0.004307
NI3031   NI        0.156875    0.344375    0.438125     0.004307
NI3032   NI        0.188125    0.313125    0.438125     0.004307
NI3033   NI        0.188125    0.344375    0.469375     0.004307
NI3034   NI        0.219375    0.313125    0.469375     0.004307
NI3035   NI        0.219375    0.344375    0.438125     0.004307
NI3036   NI        0.250625    0.313125    0.438125     0.004307
NI3037   NI        0.250625    0.344375    0.469375     0.004307
NI3038   NI        0.281875    0.313125    0.469375     0.004307
NI3039   NI        0.281875    0.344375    0.438125     0.004307
NI3040   NI        0.313125    0.313125    0.438125     0.004307
NI3041   NI        0.313125    0.344375    0.469375     0.004307
NI3042   NI        0.344375    0.313125    0.469375     0.004307
NI3043   NI        0.344375    0.344375    0.438125     0.004307
NI3044   NI        0.375625    0.313125    0.438125     0.004307
NI3045   NI        0.375625    0.344375    0.469375     0.004307
NI3046   NI        0.406875    0.313125    0.469375     0.004307
NI3047   NI        0.406875    0.344375    0.438125     0.004307
NI3048   NI        0.438125    0.313125    0.438125     0.004307
NI3049   NI        0.438125    0.344375    0.469375     0.004307
NI3050   NI        0.469375    0.313125    0.469375     0.004307
NI3051   NI        0.469375    0.344375    0.438125     0.004307
NI3052   NI        0.500625    0.313125    0.438125     0.004307
NI3053   NI        0.500625    0.344375    0.469375     0.004307
NI3054   NI        0.531875    0.313125    0.469375     0.004307
NI3055   NI        0.531875    0.344375    0.438125     0.004307
NI3056   NI        0.563125    0.313125    0.438125     0.004307
NI3057   NI        0.563125    0.344375    0.469375     0.004307
NI3058   NI        0.594375    0.313125    0.469375     0.004307
NI3059   NI        0.594375    0.344375    0.438125     0.004307
NI3060   NI        0.625625    0.313125    0.438125     0.004307
NI3061   NI        0.625625    0.344375    0.469375     0.004307
NI3062   NI        0.656875    0.313125    0.469375     0.004307
NI3063   NI        0.656875    0.344375    0.438125     0.004307
NI3064   NI        0.688125    0.313125    0.438125     0.004307
NI3065   NI        0.688125    0.344375    0.469375     0.004307
NI3066   NI        0.719375    0.313125    0.469375     0.004307
NI3067   NI        0.719375    0.344375    0.438125     0.004307
NI3068   NI        0.750625    0.313125    0.438125     0.004307
NI3069   NI        0.750625    0.344375    0.469375     0.004307
NI3070   NI        0.781875    0.313125    0.469375     0.004307
NI3071   NI        0.781875    0.344375    0.438125     0.004307
NI3072   NI        0.813125    0.313125    0.438125     0.004307
NI3073   NI        0.813125    0.344375    0.469375     0.004307
NI3074   NI        0.844375    0.313125    0.469375     0.004307
NI3075   NI        0.844375    0.344375    0.438125     0.004307
NI3076   NI        0.000625    0.375625    0.438125     0.004307
NI3077   NI        0.000625    0.406875    0.469375     0.004307
NI3078   NI        0.031875    0.375625    0.469375     0.004307
NI3079   NI        0.031875    0.406875    0.438125     0.004307
NI3080   NI        0.063125    0.375625    0.438125     0.004307
NI3081   NI        0.063125    0.406875    0.469375     0.004307
NI3082   NI        0.094375    0.375625    0.469375     0.004307
NI3083   NI        0.094375    0.406875    0.438125     0.004307
NI3084   NI        0.125625    0.375625    0.438125     0.004307
NI3085   NI        0.125625    0.406875    0.469375     0.004307
NI3086   NI        0.156875    0.375625    0.469375     0.004307
NI3087   NI        0.156875    0.406875    0.438125     0.004307
NI3088   NI        0.188125    0.375625    0.438125     0.004307
NI3089   NI        0.188125    0.406875    0.469375     0.004307
NI3090   NI        0.219375    0.375625    0.469375     0.004307
NI3091   NI        0.219375    0.406875    0.438125     0.004307
NI3092   NI        0.250625    0.375625    0.438125     0.004307
NI3093   NI        0.250625    0.406875    0.469375     0.004307
NI3094   NI        0.281875    0.375625    0.469375     0.004307
NI3095   NI        0.281875    0.406875    0.438125     0.004307
NI3096   NI        0.313125    0.375625    0.438125     0.004307
NI3097   NI        0.313125    0.406875    0.469375     0.004307
NI3098   NI        0.344375    0.375625    0.469375     0.004307
NI3099   NI        0.344375    0.406875    0.438125     0.004307
NI3100   NI        0.375625    0.375625    0.438125     0.004307
NI3101   NI        0.375625    0.406875    0.469375     0.004307
NI3102   NI        0.406875    0.375625    0.469375     0.004307
NI3103   NI        0.406875    0.406875    0.438125     0.004307
NI3104   NI        0.438125    0.375625    0.438125     0.004307
NI3105   NI        0.438125    0.406875    0.469375     0.004307
NI3106   NI        0.469375    0.375625    0.469375     0.004307
NI3107   NI        0.469375    0.406875    0.438125     0.004307
NI3108   NI        0.500625    0.375625    0.438125     0.004307
NI3109   NI        0.500625    0.406875    0.469375     0.004307
NI3110   NI        0.531875    0.375625    0.469375     0.004307
NI3111   NI        0.531875    0.406875    0.438125     0.004307
NI3112   NI        0.563125    0.375625    0.438125     0.004307
NI3113   NI        0.563125    0.406875    0.469375     0.004307
NI3114   NI        0.594375    0.375625    0.469375     0.004307
NI3115   NI        0.594375    0.406875    0.438125     0.004307
NI3116   NI        0.625625    0.375625    0.438125     0.004307
NI3117   NI        0.625625    0.406875    0.469375     0.004307
NI3118   NI        0.656875    0.375625    0.469375     0.004307
NI3119   NI        0.656875    0.406875    0.438125     0.004307
NI3120   NI        0.688125    0.375625    0.438125     0.004307
NI3121   NI        0.688125    0.406875    0.469375     0.004307
NI3122   NI        0.719375    0.375625    0.469375     0.004307
NI3123   NI        0.719375    0.406875    0.438125     0.004307
NI3124   NI        0.750625    0.375625    0.438125     0.004307
NI3125   NI        0.750625    0.406875    0.469375     0.004307
NI3126   NI        0.781875    0.375625    0.469375     0.004307
NI3127   NI        0.781875    0.406875    0.438125     0.004307
NI3128   NI        0.813125    0.375625    0.438125     0.004307
NI3129   NI        0.813125    0.406875    0.469375     0.004307
NI3130   NI        0.844375    0.375625    0.469375     0.004307
NI3131   NI        0.844375    0.406875    0.438125     0.004307
NI3132   NI        0.875625    0.375625    0.438125     0.004307
NI3133   NI        0.875625    0.406875    0.469375     0.004307
NI3134   NI        0.000625    0.438125    0.438125     0.004307
NI3135   NI        0.000625    0.469375    0.469375     0.004307
NI3136   NI        0.031875    0.438125    0.469375     0.004307
NI3137   NI        0.031875    0.469375    0.438125     0.004307
NI3138   NI        0.063125    0.438125    0.438125     0.004307
NI3139   NI        0.063125    0.469375    0.469375     0.004307
NI3140   NI        0.094375    0.438125    0.469375     0.004307
NI3141   NI        0.094375    0.469375    0.438125     0.004307
NI3142   NI        0.125625    0.438125    0.438125     0.004307
NI3143   NI        0.125625    0.469375    0.469375     0.004307
NI3144   NI        0.156875    0.438125    0.469375     0.004307
NI3145   NI        0.156875    0.469375    0.438125     0.004307
NI3146   NI        0.188125    0.438125    0.438125     0.004307
NI3147   NI        0.188125    0.469375    0.469375     0.004307
NI3148   NI        0.219375    0.438125    0.469375     0.004307
NI3149   NI        0.219375    0.469375    0.438125     0.004307
NI3150   NI        0.250625    0.438125    0.438125     0.004307
NI3151   NI        0.250625    0.469375    0.469375     0.004307
NI3152   NI        0.281875    0.438125    0.469375     0.004307
NI3153   NI        0.281875    0.469375    0.438125     0.004307
NI3154   NI        0.313125    0.438125    0.438125     0.004307
NI3155   NI        0.313125    0.469375    0.469375     0.004307
NI3156   NI        0.344375    0.438125    0.469375     0.004307
NI3157   NI        0.344375    0.469375    0.438125     0.004307
NI3158   NI        0.375625    0.438125    0.438125     0.004307
NI3159   NI        0.375625    0.469375    0.469375     0.004307
NI3160   NI        0.406875    0.438125    0.469375     0.004307
NI3161   NI        0.406875    0.469375    0.438125     0.004307
NI3162   NI        0.438125    0.438125    0.438125     0.004307
NI3163   NI        0.438125    0.469375    0.469375     0.004307
NI3164   NI        0.469375    0.438125    0.469375     0.004307
NI3165   NI        0.469375    0.469375    0.438125     0.004307
NI3166   NI        0.500625    0.438125    0.438125     0.004307
NI3167   NI        0.500625    0.469375    0.469375     0.004307
NI3168   NI        0.531875    0.438125    0.469375     0.004307
NI3169   NI        0.531875    0.469375    0.438125     0.004307
NI3170   NI        0.563125    0.438125    0.438125     0.004307
NI3171   NI        0.563125    0.469375    0.469375     0.004307
NI3172   NI        0.594375    0.438125    0.469375     0.004307
NI3173   NI        0.594375    0.469375    0.438125     0.004307
NI3174   NI        0.625625    0.438125    0.438125     0.004307
NI3175   NI        0.625625    0.469375    0.469375     0.004307
NI3176   NI        0.656875    0.438125    0.469375     0.004307
NI3177   NI        0.656875    0.469375    0.438125     0.004307
NI3178   NI        0.688125    0.438125    0.438125     0.004307
NI3179   NI        0.688125    0.469375    0.469375     0.004307
NI3180   NI        0.719375    0.438125    0.469375     0.004307
NI3181   NI        0.719375    0.469375    0.438125     0.004307
NI3182   NI        0.750625    0.438125    0.438125     0.004307
NI3183   NI        0.750625    0.469375    0.469375     0.004307
NI3184   NI        0.781875    0.438125    0.469375     0.004307
NI3185   NI        0.781875    0.469375    0.438125     0.004307
NI3186   NI        0.813125    0.438125    0.438125     0.004307
NI3187   NI        0.813125    0.469375    0.469375     0.004307
NI3188   NI        0.844375    0.438125    0.469375     0.004307
NI3189   NI        0.844375    0.469375    0.438125     0.004307
NI3190   NI        0.875625    0.438125    0.438125     0.004307
NI3191   NI        0.875625    0.469375    0.469375     0.004307
NI3192   NI        0.000625    0.500625    0.438125     0.004307
NI3193   NI        0.031875    0.500625    0.469375     0.004307
NI3194   NI        0.031875    0.531875    0.438125     0.004307
NI3195   NI        0.063125    0.500625    0.438125     0.004307
NI3196   NI        0.063125    0.531875    0.469375     0.004307
NI3197   NI        0.094375    0.500625    0.469375     0.004307
NI3198   NI        0.094375    0.531875    0.438125     0.004307
NI3199   NI        0.125625    0.500625    0.438125     0.004307
NI3200   NI        0.125625    0.531875    0.469375     0.004307
NI3201   NI        0.156875    0.500625    0.469375     0.004307
NI3202   NI        0.156875    0.531875    0.438125     0.004307
NI3203   NI        0.188125    0.500625    0.438125     0.004307
NI3204   NI        0.188125    0.531875    0.469375     0.004307
NI3205   NI        0.219375    0.500625    0.469375     0.004307
NI3206   NI        0.219375    0.531875    0.438125     0.004307
NI3207   NI        0.250625    0.500625    0.438125     0.004307
NI3208   NI        0.250625    0.531875    0.469375     0.004307
NI3209   NI        0.281875    0.500625    0.469375     0.004307
NI3210   NI        0.281875    0.531875    0.438125     0.004307
NI3211   NI        0.313125    0.500625    0.438125     0.004307
NI3212   NI        0.313125    0.531875    0.469375     0.004307
NI3213   NI        0.344375    0.500625    0.469375     0.004307
NI3214   NI        0.344375    0.531875    0.438125     0.004307
NI3215   NI        0.375625    0.500625    0.438125     0.004307
NI3216   NI        0.375625    0.531875    0.469375     0.004307
NI3217   NI        0.406875    0.500625    0.469375     0.004307
NI3218   NI        0.406875    0.531875    0.438125     0.004307
NI3219   NI        0.438125    0.500625    0.438125     0.004307
NI3220   NI        0.438125    0.531875    0.469375     0.004307
NI3221   NI        0.469375    0.500625    0.469375     0.004307
NI3222   NI        0.469375    0.531875    0.438125     0.004307
NI3223   NI        0.500625    0.500625    0.438125     0.004307
NI3224   NI        0.500625    0.531875    0.469375     0.004307
NI3225   NI        0.531875    0.500625    0.469375     0.004307
NI3226   NI        0.531875    0.531875    0.438125     0.004307
NI3227   NI        0.563125    0.500625    0.438125     0.004307
NI3228   NI        0.563125    0.531875    0.469375     0.004307
NI3229   NI        0.594375    0.500625    0.469375     0.004307
NI3230   NI        0.594375    0.531875    0.438125     0.004307
NI3231   NI        0.625625    0.500625    0.438125     0.004307
NI3232   NI        0.625625    0.531875    0.469375     0.004307
NI3233   NI        0.656875    0.500625    0.469375     0.004307
NI3234   NI        0.656875    0.531875    0.438125     0.004307
NI3235   NI        0.688125    0.500625    0.438125     0.004307
NI3236   NI        0.688125    0.531875    0.469375     0.004307
NI3237   NI        0.719375    0.500625    0.469375     0.004307
NI3238   NI        0.719375    0.531875    0.438125     0.004307
NI3239   NI        0.750625    0.500625    0.438125     0.004307
NI3240   NI        0.750625    0.531875    0.469375     0.004307
NI3241   NI        0.781875    0.500625    0.469375     0.004307
NI3242   NI        0.781875    0.531875    0.438125     0.004307
NI3243   NI        0.813125    0.500625    0.438125     0.004307
NI3244   NI        0.813125    0.531875    0.469375     0.004307
NI3245   NI        0.844375    0.500625    0.469375     0.004307
NI3246   NI        0.844375    0.531875    0.438125     0.004307
NI3247   NI        0.875625    0.500625    0.438125     0.004307
NI3248   NI        0.031875    0.563125    0.469375     0.004307
NI3249   NI        0.031875    0.594375    0.438125     0.004307
NI3250   NI        0.063125    0.563125    0.438125     0.004307
NI3251   NI        0.063125    0.594375    0.469375     0.004307
NI3252   NI        0.094375    0.563125    0.469375     0.004307
NI3253   NI        0.094375    0.594375    0.438125     0.004307
NI3254   NI        0.125625    0.563125    0.438125     0.004307
NI3255   NI        0.125625    0.594375    0.469375     0.004307
NI3256   NI        0.156875    0.563125    0.469375     0.004307
NI3257   NI        0.156875    0.594375    0.438125     0.004307
NI3258   NI        0.188125    0.563125    0.438125     0.004307
NI3259   NI        0.188125    0.594375    0.469375     0.004307
NI3260   NI        0.219375    0.563125    0.469375     0.004307
NI3261   NI        0.219375    0.594375    0.438125     0.004307
NI3262   NI        0.250625    0.563125    0.438125     0.004307
NI3263   NI        0.250625    0.594375    0.469375     0.004307
NI3264   NI        0.281875    0.563125    0.469375     0.004307
NI3265   NI        0.281875    0.594375    0.438125     0.004307
NI3266   NI        0.313125    0.563125    0.438125     0.004307
NI3267   NI        0.313125    0.594375    0.469375     0.004307
NI3268   NI        0.344375    0.563125    0.469375     0.004307
NI3269   NI        0.344375    0.594375    0.438125     0.004307
NI3270   NI        0.375625    0.563125    0.438125     0.004307
NI3271   NI        0.375625    0.594375    0.469375     0.004307
NI3272   NI        0.406875    0.563125    0.469375     0.004307
NI3273   NI        0.406875    0.594375    0.438125     0.004307
NI3274   NI        0.438125    0.563125    0.438125     0.004307
NI3275   NI        0.438125    0.594375    0.469375     0.004307
NI3276   NI        0.469375    0.563125    0.469375     0.004307
NI3277   NI        0.469375    0.594375    0.438125     0.004307
NI3278   NI        0.500625    0.563125    0.438125     0.004307
NI3279   NI        0.500625    0.594375    0.469375     0.004307
NI3280   NI        0.531875    0.563125    0.469375     0.004307
NI3281   NI        0.531875    0.594375    0.438125     0.004307
NI3282   NI        0.563125    0.563125    0.438125     0.004307
NI3283   NI        0.563125    0.594375    0.469375     0.004307
NI3284   NI        0.594375    0.563125    0.469375     0.004307
NI3285   NI        0.594375    0.594375    0.438125     0.004307
NI3286   NI        0.625625    0.563125    0.438125     0.004307
NI3287   NI        0.625625    0.594375    0.469375     0.004307
NI3288   NI        0.656875    0.563125    0.469375     0.004307
NI3289   NI        0.656875    0.594375    0.438125     0.004307
NI3290   NI        0.688125    0.563125    0.438125     0.004307
NI3291   NI        0.688125    0.594375    0.469375     0.004307
NI3292   NI        0.719375    0.563125    0.469375     0.004307
NI3293   NI        0.719375    0.594375    0.438125     0.004307
NI3294   NI        0.750625    0.563125    0.438125     0.004307
NI3295   NI        0.750625    0.594375    0.469375     0.004307
NI3296   NI        0.781875    0.563125    0.469375     0.004307
NI3297   NI        0.781875    0.594375    0.438125     0.004307
NI3298   NI        0.813125    0.563125    0.438125     0.004307
NI3299   NI        0.813125    0.594375    0.469375     0.004307
NI3300   NI        0.844375    0.563125    0.469375     0.004307
NI3301   NI        0.844375    0.594375    0.438125     0.004307
NI3302   NI        0.063125    0.625625    0.438125     0.004307
NI3303   NI        0.063125    0.656875    0.469375     0.004307
NI3304   NI        0.094375    0.625625    0.469375     0.004307
NI3305   NI        0.094375    0.656875    0.438125     0.004307
NI3306   NI        0.125625    0.625625    0.438125     0.004307
NI3307   NI        0.125625    0.656875    0.469375     0.004307
NI3308   NI        0.156875    0.625625    0.469375     0.004307
NI3309   NI        0.156875    0.656875    0.438125     0.004307
NI3310   NI        0.188125    0.625625    0.438125     0.004307
NI3311   NI        0.188125    0.656875    0.469375     0.004307
NI3312   NI        0.219375    0.625625    0.469375     0.004307
NI3313   NI        0.219375    0.656875    0.438125     0.004307
NI3314   NI        0.250625    0.625625    0.438125     0.004307
NI3315   NI        0.250625    0.656875    0.469375     0.004307
NI3316   NI        0.281875    0.625625    0.469375     0.004307
NI3317   NI        0.281875    0.656875    0.438125     0.004307
NI3318   NI        0.313125    0.625625    0.438125     0.004307
NI3319   NI        0.313125    0.656875    0.469375     0.004307
NI3320   NI        0.344375    0.625625    0.469375     0.004307
NI3321   NI        0.344375    0.656875    0.438125     0.004307
NI3322   NI        0.375625    0.625625    0.438125     0.004307
NI3323   NI        0.375625    0.656875    0.469375     0.004307
NI3324   NI        0.406875    0.625625    0.469375     0.004307
NI3325   NI        0.406875    0.656875    0.438125     0.004307
NI3326   NI        0.438125    0.625625    0.438125     0.004307
NI3327   NI        0.438125    0.656875    0.469375     0.004307
NI3328   NI        0.469375    0.625625    0.469375     0.004307
NI3329   NI        0.469375    0.656875    0.438125     0.004307
NI3330   NI        0.500625    0.625625    0.438125     0.004307
NI3331   NI        0.500625    0.656875    0.469375     0.004307
NI3332   NI        0.531875    0.625625    0.469375     0.004307
NI3333   NI        0.531875    0.656875    0.438125     0.004307
NI3334   NI        0.563125    0.625625    0.438125     0.004307
NI3335   NI        0.563125    0.656875    0.469375     0.004307
NI3336   NI        0.594375    0.625625    0.469375     0.004307
NI3337   NI        0.594375    0.656875    0.438125     0.004307
NI3338   NI        0.625625    0.625625    0.438125     0.004307
NI3339   NI        0.625625    0.656875    0.469375     0.004307
NI3340   NI        0.656875    0.625625    0.469375     0.004307
NI3341   NI        0.656875    0.656875    0.438125     0.004307
NI3342   NI        0.688125    0.625625    0.438125     0.004307
NI3343   NI        0.688125    0.656875    0.469375     0.004307
NI3344   NI        0.719375    0.625625    0.469375     0.004307
NI3345   NI        0.719375    0.656875    0.438125     0.004307
NI3346   NI        0.750625    0.625625    0.438125     0.004307
NI3347   NI        0.750625    0.656875    0.469375     0.004307
NI3348   NI        0.781875    0.625625    0.469375     0.004307
NI3349   NI        0.781875    0.656875    0.438125     0.004307
NI3350   NI        0.813125    0.625625    0.438125     0.004307
NI3351   NI        0.813125    0.656875    0.469375     0.004307
NI3352   NI        0.094375    0.688125    0.469375     0.004307
NI3353   NI        0.125625    0.688125    0.438125     0.004307
NI3354   NI        0.125625    0.719375    0.469375     0.004307
NI3355   NI        0.156875    0.688125    0.469375     0.004307
NI3356   NI        0.156875    0.719375    0.438125     0.004307
NI3357   NI        0.188125    0.688125    0.438125     0.004307
NI3358   NI        0.188125    0.719375    0.469375     0.004307
NI3359   NI        0.219375    0.688125    0.469375     0.004307
NI3360   NI        0.219375    0.719375    0.438125     0.004307
NI3361   NI        0.250625    0.688125    0.438125     0.004307
NI3362   NI        0.250625    0.719375    0.469375     0.004307
NI3363   NI        0.281875    0.688125    0.469375     0.004307
NI3364   NI        0.281875    0.719375    0.438125     0.004307
NI3365   NI        0.313125    0.688125    0.438125     0.004307
NI3366   NI        0.313125    0.719375    0.469375     0.004307
NI3367   NI        0.344375    0.688125    0.469375     0.004307
NI3368   NI        0.344375    0.719375    0.438125     0.004307
NI3369   NI        0.375625    0.688125    0.438125     0.004307
NI3370   NI        0.375625    0.719375    0.469375     0.004307
NI3371   NI        0.406875    0.688125    0.469375     0.004307
NI3372   NI        0.406875    0.719375    0.438125     0.004307
NI3373   NI        0.438125    0.688125    0.438125     0.004307
NI3374   NI        0.438125    0.719375    0.469375     0.004307
NI3375   NI        0.469375    0.688125    0.469375     0.004307
NI3376   NI        0.469375    0.719375    0.438125     0.004307
NI3377   NI        0.500625    0.688125    0.438125     0.004307
NI3378   NI        0.500625    0.719375    0.469375     0.004307
NI3379   NI        0.531875    0.688125    0.469375     0.004307
NI3380   NI        0.531875    0.719375    0.438125     0.004307
NI3381   NI        0.563125    0.688125    0.438125     0.004307
NI3382   NI        0.563125    0.719375    0.469375     0.004307
NI3383   NI        0.594375    0.688125    0.469375     0.004307
NI3384   NI        0.594375    0.719375    0.438125     0.004307
NI3385   NI        0.625625    0.688125    0.438125     0.004307
NI3386   NI        0.625625    0.719375    0.469375     0.004307
NI3387   NI        0.656875    0.688125    0.469375     0.004307
NI3388   NI        0.656875    0.719375    0.438125     0.004307
NI3389   NI        0.688125    0.688125    0.438125     0.004307
NI3390   NI        0.688125    0.719375    0.469375     0.004307
NI3391   NI        0.719375    0.688125    0.469375     0.004307
NI3392   NI        0.719375    0.719375    0.438125     0.004307
NI3393   NI        0.750625    0.688125    0.438125     0.004307
NI3394   NI        0.750625    0.719375    0.469375     0.004307
NI3395   NI        0.781875    0.688125    0.469375     0.004307
NI3396   NI        0.125625    0.750625    0.438125     0.004307
NI3397   NI        0.156875    0.750625    0.469375     0.004307
NI3398   NI        0.188125    0.750625    0.438125     0.004307
NI3399   NI        0.188125    0.781875    0.469375     0.004307
NI3400   NI        0.219375    0.750625    0.469375     0.004307
NI3401   NI        0.219375    0.781875    0.438125     0.004307
NI3402   NI        0.250625    0.750625    0.438125     0.004307
NI3403   NI        0.250625    0.781875    0.469375     0.004307
NI3404   NI        0.281875    0.750625    0.469375     0.004307
NI3405   NI        0.281875    0.781875    0.438125     0.004307
NI3406   NI        0.313125    0.750625    0.438125     0.004307
NI3407   NI        0.313125    0.781875    0.469375     0.004307
NI3408   NI        0.344375    0.750625    0.469375     0.004307
NI3409   NI        0.344375    0.781875    0.438125     0.004307
NI3410   NI        0.375625    0.750625    0.438125     0.004307
NI3411   NI        0.375625    0.781875    0.469375     0.004307
NI3412   NI        0.406875    0.750625    0.469375     0.004307
NI3413   NI        0.406875    0.781875    0.438125     0.004307
NI3414   NI        0.438125    0.750625    0.438125     0.004307
NI3415   NI        0.438125    0.781875    0.469375     0.004307
NI3416   NI        0.469375    0.750625    0.469375     0.004307
NI3417   NI        0.469375    0.781875    0.438125     0.004307
NI3418   NI        0.500625    0.750625    0.438125     0.004307
NI3419   NI        0.500625    0.781875    0.469375     0.004307
NI3420   NI        0.531875    0.750625    0.469375     0.004307
NI3421   NI        0.531875    0.781875    0.438125     0.004307
NI3422   NI        0.563125    0.750625    0.438125     0.004307
NI3423   NI        0.563125    0.781875    0.469375     0.004307
NI3424   NI        0.594375    0.750625    0.469375     0.004307
NI3425   NI        0.594375    0.781875    0.438125     0.004307
NI3426   NI        0.625625    0.750625    0.438125     0.004307
NI3427   NI        0.625625    0.781875    0.469375     0.004307
NI3428   NI        0.656875    0.750625    0.469375     0.004307
NI3429   NI        0.656875    0.781875    0.438125     0.004307
NI3430   NI        0.688125    0.750625    0.438125     0.004307
NI3431   NI        0.688125    0.781875    0.469375     0.004307
NI3432   NI        0.719375    0.750625    0.469375     0.004307
NI3433   NI        0.750625    0.750625    0.438125     0.004307
NI3434   NI        0.219375    0.813125    0.469375     0.004307
NI3435   NI        0.250625    0.813125    0.438125     0.004307
NI3436   NI        0.281875    0.813125    0.469375     0.004307
NI3437   NI        0.281875    0.844375    0.438125     0.004307
NI3438   NI        0.313125    0.813125    0.438125     0.004307
NI3439   NI        0.313125    0.844375    0.469375     0.004307
NI3440   NI        0.344375    0.813125    0.469375     0.004307
NI3441   NI        0.344375    0.844375    0.438125     0.004307
NI3442   NI        0.375625    0.813125    0.438125     0.004307
NI3443   NI        0.375625    0.844375    0.469375     0.004307
NI3444   NI        0.406875    0.813125    0.469375     0.004307
NI3445   NI        0.406875    0.844375    0.438125     0.004307
NI3446   NI        0.438125    0.813125    0.438125     0.004307
NI3447   NI        0.438125    0.844375    0.469375     0.004307
NI3448   NI        0.469375    0.813125    0.469375     0.004307
NI3449   NI        0.469375    0.844375    0.438125     0.004307
NI3450   NI        0.500625    0.813125    0.438125     0.004307
NI3451   NI        0.500625    0.844375    0.469375     0.004307
NI3452   NI        0.531875    0.813125    0.469375     0.004307
NI3453   NI        0.531875    0.844375    0.438125     0.004307
NI3454   NI        0.563125    0.813125    0.438125     0.004307
NI3455   NI        0.563125    0.844375    0.469375     0.004307
NI3456   NI        0.594375    0.813125    0.469375     0.004307
NI3457   NI        0.594375    0.844375    0.438125     0.004307
NI3458   NI        0.625625    0.813125    0.438125     0.004307
NI3459   NI        0.656875    0.813125    0.469375     0.004307
NI3460   NI        0.375625    0.875625    0.438125     0.004307
NI3461   NI        0.406875    0.875625    0.469375     0.004307
NI3462   NI        0.438125    0.875625    0.438125     0.004307
NI3463   NI        0.469375    0.875625    0.469375     0.004307
NI3464   NI        0.500625    0.875625    0.438125     0.004307
NI3465   NI        0.281875    0.031875    0.500625     0.004307
NI3466   NI        0.313125    0.031875    0.531875     0.004307
NI3467   NI        0.344375    0.031875    0.500625     0.004307
NI3468   NI        0.375625    0.031875    0.531875     0.004307
NI3469   NI        0.406875    0.031875    0.500625     0.004307
NI3470   NI        0.438125    0.000625    0.500625     0.004307
NI3471   NI        0.438125    0.031875    0.531875     0.004307
NI3472   NI        0.469375    0.031875    0.500625     0.004307
NI3473   NI        0.500625    0.031875    0.531875     0.004307
NI3474   NI        0.531875    0.031875    0.500625     0.004307
NI3475   NI        0.563125    0.031875    0.531875     0.004307
NI3476   NI        0.594375    0.031875    0.500625     0.004307
NI3477   NI        0.188125    0.094375    0.531875     0.004307
NI3478   NI        0.219375    0.094375    0.500625     0.004307
NI3479   NI        0.250625    0.063125    0.500625     0.004307
NI3480   NI        0.250625    0.094375    0.531875     0.004307
NI3481   NI        0.281875    0.063125    0.531875     0.004307
NI3482   NI        0.281875    0.094375    0.500625     0.004307
NI3483   NI        0.313125    0.063125    0.500625     0.004307
NI3484   NI        0.313125    0.094375    0.531875     0.004307
NI3485   NI        0.344375    0.063125    0.531875     0.004307
NI3486   NI        0.344375    0.094375    0.500625     0.004307
NI3487   NI        0.375625    0.063125    0.500625     0.004307
NI3488   NI        0.375625    0.094375    0.531875     0.004307
NI3489   NI        0.406875    0.063125    0.531875     0.004307
NI3490   NI        0.406875    0.094375    0.500625     0.004307
NI3491   NI        0.438125    0.063125    0.500625     0.004307
NI3492   NI        0.438125    0.094375    0.531875     0.004307
NI3493   NI        0.469375    0.063125    0.531875     0.004307
NI3494   NI        0.469375    0.094375    0.500625     0.004307
NI3495   NI        0.500625    0.063125    0.500625     0.004307
NI3496   NI        0.500625    0.094375    0.531875     0.004307
NI3497   NI        0.531875    0.063125    0.531875     0.004307
NI3498   NI        0.531875    0.094375    0.500625     0.004307
NI3499   NI        0.563125    0.063125    0.500625     0.004307
NI3500   NI        0.563125    0.094375    0.531875     0.004307
NI3501   NI        0.594375    0.063125    0.531875     0.004307
NI3502   NI        0.594375    0.094375    0.500625     0.004307
NI3503   NI        0.625625    0.063125    0.500625     0.004307
NI3504   NI        0.625625    0.094375    0.531875     0.004307
NI3505   NI        0.656875    0.094375    0.500625     0.004307
NI3506   NI        0.688125    0.094375    0.531875     0.004307
NI3507   NI        0.125625    0.156875    0.531875     0.004307
NI3508   NI        0.156875    0.125625    0.531875     0.004307
NI3509   NI        0.156875    0.156875    0.500625     0.004307
NI3510   NI        0.188125    0.125625    0.500625     0.004307
NI3511   NI        0.188125    0.156875    0.531875     0.004307
NI3512   NI        0.219375    0.125625    0.531875     0.004307
NI3513   NI        0.219375    0.156875    0.500625     0.004307
NI3514   NI        0.250625    0.125625    0.500625     0.004307
NI3515   NI        0.250625    0.156875    0.531875     0.004307
NI3516   NI        0.281875    0.125625    0.531875     0.004307
NI3517   NI        0.281875    0.156875    0.500625     0.004307
NI3518   NI        0.313125    0.125625    0.500625     0.004307
NI3519   NI        0.313125    0.156875    0.531875     0.004307
NI3520   NI        0.344375    0.125625    0.531875     0.004307
NI3521   NI        0.344375    0.156875    0.500625     0.004307
NI3522   NI        0.375625    0.125625    0.500625     0.004307
NI3523   NI        0.375625    0.156875    0.531875     0.004307
NI3524   NI        0.406875    0.125625    0.531875     0.004307
NI3525   NI        0.406875    0.156875    0.500625     0.004307
NI3526   NI        0.438125    0.125625    0.500625     0.004307
NI3527   NI        0.438125    0.156875    0.531875     0.004307
NI3528   NI        0.469375    0.125625    0.531875     0.004307
NI3529   NI        0.469375    0.156875    0.500625     0.004307
NI3530   NI        0.500625    0.125625    0.500625     0.004307
NI3531   NI        0.500625    0.156875    0.531875     0.004307
NI3532   NI        0.531875    0.125625    0.531875     0.004307
NI3533   NI        0.531875    0.156875    0.500625     0.004307
NI3534   NI        0.563125    0.125625    0.500625     0.004307
NI3535   NI        0.563125    0.156875    0.531875     0.004307
NI3536   NI        0.594375    0.125625    0.531875     0.004307
NI3537   NI        0.594375    0.156875    0.500625     0.004307
NI3538   NI        0.625625    0.125625    0.500625     0.004307
NI3539   NI        0.625625    0.156875    0.531875     0.004307
NI3540   NI        0.656875    0.125625    0.531875     0.004307
NI3541   NI        0.656875    0.156875    0.500625     0.004307
NI3542   NI        0.688125    0.125625    0.500625     0.004307
NI3543   NI        0.688125    0.156875    0.531875     0.004307
NI3544   NI        0.719375    0.125625    0.531875     0.004307
NI3545   NI        0.719375    0.156875    0.500625     0.004307
NI3546   NI        0.750625    0.156875    0.531875     0.004307
NI3547   NI        0.094375    0.188125    0.531875     0.004307
NI3548   NI        0.094375    0.219375    0.500625     0.004307
NI3549   NI        0.125625    0.188125    0.500625     0.004307
NI3550   NI        0.125625    0.219375    0.531875     0.004307
NI3551   NI        0.156875    0.188125    0.531875     0.004307
NI3552   NI        0.156875    0.219375    0.500625     0.004307
NI3553   NI        0.188125    0.188125    0.500625     0.004307
NI3554   NI        0.188125    0.219375    0.531875     0.004307
NI3555   NI        0.219375    0.188125    0.531875     0.004307
NI3556   NI        0.219375    0.219375    0.500625     0.004307
NI3557   NI        0.250625    0.188125    0.500625     0.004307
NI3558   NI        0.250625    0.219375    0.531875     0.004307
NI3559   NI        0.281875    0.188125    0.531875     0.004307
NI3560   NI        0.281875    0.219375    0.500625     0.004307
NI3561   NI        0.313125    0.188125    0.500625     0.004307
NI3562   NI        0.313125    0.219375    0.531875     0.004307
NI3563   NI        0.344375    0.188125    0.531875     0.004307
NI3564   NI        0.344375    0.219375    0.500625     0.004307
NI3565   NI        0.375625    0.188125    0.500625     0.004307
NI3566   NI        0.375625    0.219375    0.531875     0.004307
NI3567   NI        0.406875    0.188125    0.531875     0.004307
NI3568   NI        0.406875    0.219375    0.500625     0.004307
NI3569   NI        0.438125    0.188125    0.500625     0.004307
NI3570   NI        0.438125    0.219375    0.531875     0.004307
NI3571   NI        0.469375    0.188125    0.531875     0.004307
NI3572   NI        0.469375    0.219375    0.500625     0.004307
NI3573   NI        0.500625    0.188125    0.500625     0.004307
NI3574   NI        0.500625    0.219375    0.531875     0.004307
NI3575   NI        0.531875    0.188125    0.531875     0.004307
NI3576   NI        0.531875    0.219375    0.500625     0.004307
NI3577   NI        0.563125    0.188125    0.500625     0.004307
NI3578   NI        0.563125    0.219375    0.531875     0.004307
NI3579   NI        0.594375    0.188125    0.531875     0.004307
NI3580   NI        0.594375    0.219375    0.500625     0.004307
NI3581   NI        0.625625    0.188125    0.500625     0.004307
NI3582   NI        0.625625    0.219375    0.531875     0.004307
NI3583   NI        0.656875    0.188125    0.531875     0.004307
NI3584   NI        0.656875    0.219375    0.500625     0.004307
NI3585   NI        0.688125    0.188125    0.500625     0.004307
NI3586   NI        0.688125    0.219375    0.531875     0.004307
NI3587   NI        0.719375    0.188125    0.531875     0.004307
NI3588   NI        0.719375    0.219375    0.500625     0.004307
NI3589   NI        0.750625    0.188125    0.500625     0.004307
NI3590   NI        0.750625    0.219375    0.531875     0.004307
NI3591   NI        0.781875    0.188125    0.531875     0.004307
NI3592   NI        0.781875    0.219375    0.500625     0.004307
NI3593   NI        0.031875    0.281875    0.500625     0.004307
NI3594   NI        0.063125    0.250625    0.500625     0.004307
NI3595   NI        0.063125    0.281875    0.531875     0.004307
NI3596   NI        0.094375    0.250625    0.531875     0.004307
NI3597   NI        0.094375    0.281875    0.500625     0.004307
NI3598   NI        0.125625    0.250625    0.500625     0.004307
NI3599   NI        0.125625    0.281875    0.531875     0.004307
NI3600   NI        0.156875    0.250625    0.531875     0.004307
NI3601   NI        0.156875    0.281875    0.500625     0.004307
NI3602   NI        0.188125    0.250625    0.500625     0.004307
NI3603   NI        0.188125    0.281875    0.531875     0.004307
NI3604   NI        0.219375    0.250625    0.531875     0.004307
NI3605   NI        0.219375    0.281875    0.500625     0.004307
NI3606   NI        0.250625    0.250625    0.500625     0.004307
NI3607   NI        0.250625    0.281875    0.531875     0.004307
NI3608   NI        0.281875    0.250625    0.531875     0.004307
NI3609   NI        0.281875    0.281875    0.500625     0.004307
NI3610   NI        0.313125    0.250625    0.500625     0.004307
NI3611   NI        0.313125    0.281875    0.531875     0.004307
NI3612   NI        0.344375    0.250625    0.531875     0.004307
NI3613   NI        0.344375    0.281875    0.500625     0.004307
NI3614   NI        0.375625    0.250625    0.500625     0.004307
NI3615   NI        0.375625    0.281875    0.531875     0.004307
NI3616   NI        0.406875    0.250625    0.531875     0.004307
NI3617   NI        0.406875    0.281875    0.500625     0.004307
NI3618   NI        0.438125    0.250625    0.500625     0.004307
NI3619   NI        0.438125    0.281875    0.531875     0.004307
NI3620   NI        0.469375    0.250625    0.531875     0.004307
NI3621   NI        0.469375    0.281875    0.500625     0.004307
NI3622   NI        0.500625    0.250625    0.500625     0.004307
NI3623   NI        0.500625    0.281875    0.531875     0.004307
NI3624   NI        0.531875    0.250625    0.531875     0.004307
NI3625   NI        0.531875    0.281875    0.500625     0.004307
NI3626   NI        0.563125    0.250625    0.500625     0.004307
NI3627   NI        0.563125    0.281875    0.531875     0.004307
NI3628   NI        0.594375    0.250625    0.531875     0.004307
NI3629   NI        0.594375    0.281875    0.500625     0.004307
NI3630   NI        0.625625    0.250625    0.500625     0.004307
NI3631   NI        0.625625    0.281875    0.531875     0.004307
NI3632   NI        0.656875    0.250625    0.531875     0.004307
NI3633   NI        0.656875    0.281875    0.500625     0.004307
NI3634   NI        0.688125    0.250625    0.500625     0.004307
NI3635   NI        0.688125    0.281875    0.531875     0.004307
NI3636   NI        0.719375    0.250625    0.531875     0.004307
NI3637   NI        0.719375    0.281875    0.500625     0.004307
NI3638   NI        0.750625    0.250625    0.500625     0.004307
NI3639   NI        0.750625    0.281875    0.531875     0.004307
NI3640   NI        0.781875    0.250625    0.531875     0.004307
NI3641   NI        0.781875    0.281875    0.500625     0.004307
NI3642   NI        0.813125    0.250625    0.500625     0.004307
NI3643   NI        0.813125    0.281875    0.531875     0.004307
NI3644   NI        0.844375    0.281875    0.500625     0.004307
NI3645   NI        0.031875    0.313125    0.531875     0.004307
NI3646   NI        0.031875    0.344375    0.500625     0.004307
NI3647   NI        0.063125    0.313125    0.500625     0.004307
NI3648   NI        0.063125    0.344375    0.531875     0.004307
NI3649   NI        0.094375    0.313125    0.531875     0.004307
NI3650   NI        0.094375    0.344375    0.500625     0.004307
NI3651   NI        0.125625    0.313125    0.500625     0.004307
NI3652   NI        0.125625    0.344375    0.531875     0.004307
NI3653   NI        0.156875    0.313125    0.531875     0.004307
NI3654   NI        0.156875    0.344375    0.500625     0.004307
NI3655   NI        0.188125    0.313125    0.500625     0.004307
NI3656   NI        0.188125    0.344375    0.531875     0.004307
NI3657   NI        0.219375    0.313125    0.531875     0.004307
NI3658   NI        0.219375    0.344375    0.500625     0.004307
NI3659   NI        0.250625    0.313125    0.500625     0.004307
NI3660   NI        0.250625    0.344375    0.531875     0.004307
NI3661   NI        0.281875    0.313125    0.531875     0.004307
NI3662   NI        0.281875    0.344375    0.500625     0.004307
NI3663   NI        0.313125    0.313125    0.500625     0.004307
NI3664   NI        0.313125    0.344375    0.531875     0.004307
NI3665   NI        0.344375    0.313125    0.531875     0.004307
NI3666   NI        0.344375    0.344375    0.500625     0.004307
NI3667   NI        0.375625    0.313125    0.500625     0.004307
NI3668   NI        0.375625    0.344375    0.531875     0.004307
NI3669   NI        0.406875    0.313125    0.531875     0.004307
NI3670   NI        0.406875    0.344375    0.500625     0.004307
NI3671   NI        0.438125    0.313125    0.500625     0.004307
NI3672   NI        0.438125    0.344375    0.531875     0.004307
NI3673   NI        0.469375    0.313125    0.531875     0.004307
NI3674   NI        0.469375    0.344375    0.500625     0.004307
NI3675   NI        0.500625    0.313125    0.500625     0.004307
NI3676   NI        0.500625    0.344375    0.531875     0.004307
NI3677   NI        0.531875    0.313125    0.531875     0.004307
NI3678   NI        0.531875    0.344375    0.500625     0.004307
NI3679   NI        0.563125    0.313125    0.500625     0.004307
NI3680   NI        0.563125    0.344375    0.531875     0.004307
NI3681   NI        0.594375    0.313125    0.531875     0.004307
NI3682   NI        0.594375    0.344375    0.500625     0.004307
NI3683   NI        0.625625    0.313125    0.500625     0.004307
NI3684   NI        0.625625    0.344375    0.531875     0.004307
NI3685   NI        0.656875    0.313125    0.531875     0.004307
NI3686   NI        0.656875    0.344375    0.500625     0.004307
NI3687   NI        0.688125    0.313125    0.500625     0.004307
NI3688   NI        0.688125    0.344375    0.531875     0.004307
NI3689   NI        0.719375    0.313125    0.531875     0.004307
NI3690   NI        0.719375    0.344375    0.500625     0.004307
NI3691   NI        0.750625    0.313125    0.500625     0.004307
NI3692   NI        0.750625    0.344375    0.531875     0.004307
NI3693   NI        0.781875    0.313125    0.531875     0.004307
NI3694   NI        0.781875    0.344375    0.500625     0.004307
NI3695   NI        0.813125    0.313125    0.500625     0.004307
NI3696   NI        0.813125    0.344375    0.531875     0.004307
NI3697   NI        0.844375    0.313125    0.531875     0.004307
NI3698   NI        0.844375    0.344375    0.500625     0.004307
NI3699   NI        0.031875    0.375625    0.531875     0.004307
NI3700   NI        0.031875    0.406875    0.500625     0.004307
NI3701   NI        0.063125    0.375625    0.500625     0.004307
NI3702   NI        0.063125    0.406875    0.531875     0.004307
NI3703   NI        0.094375    0.375625    0.531875     0.004307
NI3704   NI        0.094375    0.406875    0.500625     0.004307
NI3705   NI        0.125625    0.375625    0.500625     0.004307
NI3706   NI        0.125625    0.406875    0.531875     0.004307
NI3707   NI        0.156875    0.375625    0.531875     0.004307
NI3708   NI        0.156875    0.406875    0.500625     0.004307
NI3709   NI        0.188125    0.375625    0.500625     0.004307
NI3710   NI        0.188125    0.406875    0.531875     0.004307
NI3711   NI        0.219375    0.375625    0.531875     0.004307
NI3712   NI        0.219375    0.406875    0.500625     0.004307
NI3713   NI        0.250625    0.375625    0.500625     0.004307
NI3714   NI        0.250625    0.406875    0.531875     0.004307
NI3715   NI        0.281875    0.375625    0.531875     0.004307
NI3716   NI        0.281875    0.406875    0.500625     0.004307
NI3717   NI        0.313125    0.375625    0.500625     0.004307
NI3718   NI        0.313125    0.406875    0.531875     0.004307
NI3719   NI        0.344375    0.375625    0.531875     0.004307
NI3720   NI        0.344375    0.406875    0.500625     0.004307
NI3721   NI        0.375625    0.375625    0.500625     0.004307
NI3722   NI        0.375625    0.406875    0.531875     0.004307
NI3723   NI        0.406875    0.375625    0.531875     0.004307
NI3724   NI        0.406875    0.406875    0.500625     0.004307
NI3725   NI        0.438125    0.375625    0.500625     0.004307
NI3726   NI        0.438125    0.406875    0.531875     0.004307
NI3727   NI        0.469375    0.375625    0.531875     0.004307
NI3728   NI        0.469375    0.406875    0.500625     0.004307
NI3729   NI        0.500625    0.375625    0.500625     0.004307
NI3730   NI        0.500625    0.406875    0.531875     0.004307
NI3731   NI        0.531875    0.375625    0.531875     0.004307
NI3732   NI        0.531875    0.406875    0.500625     0.004307
NI3733   NI        0.563125    0.375625    0.500625     0.004307
NI3734   NI        0.563125    0.406875    0.531875     0.004307
NI3735   NI        0.594375    0.375625    0.531875     0.004307
NI3736   NI        0.594375    0.406875    0.500625     0.004307
NI3737   NI        0.625625    0.375625    0.500625     0.004307
NI3738   NI        0.625625    0.406875    0.531875     0.004307
NI3739   NI        0.656875    0.375625    0.531875     0.004307
NI3740   NI        0.656875    0.406875    0.500625     0.004307
NI3741   NI        0.688125    0.375625    0.500625     0.004307
NI3742   NI        0.688125    0.406875    0.531875     0.004307
NI3743   NI        0.719375    0.375625    0.531875     0.004307
NI3744   NI        0.719375    0.406875    0.500625     0.004307
NI3745   NI        0.750625    0.375625    0.500625     0.004307
NI3746   NI        0.750625    0.406875    0.531875     0.004307
NI3747   NI        0.781875    0.375625    0.531875     0.004307
NI3748   NI        0.781875    0.406875    0.500625     0.004307
NI3749   NI        0.813125    0.375625    0.500625     0.004307
NI3750   NI        0.813125    0.406875    0.531875     0.004307
NI3751   NI        0.844375    0.375625    0.531875     0.004307
NI3752   NI        0.844375    0.406875    0.500625     0.004307
NI3753   NI        0.000625    0.438125    0.500625     0.004307
NI3754   NI        0.031875    0.438125    0.531875     0.004307
NI3755   NI        0.031875    0.469375    0.500625     0.004307
NI3756   NI        0.063125    0.438125    0.500625     0.004307
NI3757   NI        0.063125    0.469375    0.531875     0.004307
NI3758   NI        0.094375    0.438125    0.531875     0.004307
NI3759   NI        0.094375    0.469375    0.500625     0.004307
NI3760   NI        0.125625    0.438125    0.500625     0.004307
NI3761   NI        0.125625    0.469375    0.531875     0.004307
NI3762   NI        0.156875    0.438125    0.531875     0.004307
NI3763   NI        0.156875    0.469375    0.500625     0.004307
NI3764   NI        0.188125    0.438125    0.500625     0.004307
NI3765   NI        0.188125    0.469375    0.531875     0.004307
NI3766   NI        0.219375    0.438125    0.531875     0.004307
NI3767   NI        0.219375    0.469375    0.500625     0.004307
NI3768   NI        0.250625    0.438125    0.500625     0.004307
NI3769   NI        0.250625    0.469375    0.531875     0.004307
NI3770   NI        0.281875    0.438125    0.531875     0.004307
NI3771   NI        0.281875    0.469375    0.500625     0.004307
NI3772   NI        0.313125    0.438125    0.500625     0.004307
NI3773   NI        0.313125    0.469375    0.531875     0.004307
NI3774   NI        0.344375    0.438125    0.531875     0.004307
NI3775   NI        0.344375    0.469375    0.500625     0.004307
NI3776   NI        0.375625    0.438125    0.500625     0.004307
NI3777   NI        0.375625    0.469375    0.531875     0.004307
NI3778   NI        0.406875    0.438125    0.531875     0.004307
NI3779   NI        0.406875    0.469375    0.500625     0.004307
NI3780   NI        0.438125    0.438125    0.500625     0.004307
NI3781   NI        0.438125    0.469375    0.531875     0.004307
NI3782   NI        0.469375    0.438125    0.531875     0.004307
NI3783   NI        0.469375    0.469375    0.500625     0.004307
NI3784   NI        0.500625    0.438125    0.500625     0.004307
NI3785   NI        0.500625    0.469375    0.531875     0.004307
NI3786   NI        0.531875    0.438125    0.531875     0.004307
NI3787   NI        0.531875    0.469375    0.500625     0.004307
NI3788   NI        0.563125    0.438125    0.500625     0.004307
NI3789   NI        0.563125    0.469375    0.531875     0.004307
NI3790   NI        0.594375    0.438125    0.531875     0.004307
NI3791   NI        0.594375    0.469375    0.500625     0.004307
NI3792   NI        0.625625    0.438125    0.500625     0.004307
NI3793   NI        0.625625    0.469375    0.531875     0.004307
NI3794   NI        0.656875    0.438125    0.531875     0.004307
NI3795   NI        0.656875    0.469375    0.500625     0.004307
NI3796   NI        0.688125    0.438125    0.500625     0.004307
NI3797   NI        0.688125    0.469375    0.531875     0.004307
NI3798   NI        0.719375    0.438125    0.531875     0.004307
NI3799   NI        0.719375    0.469375    0.500625     0.004307
NI3800   NI        0.750625    0.438125    0.500625     0.004307
NI3801   NI        0.750625    0.469375    0.531875     0.004307
NI3802   NI        0.781875    0.438125    0.531875     0.004307
NI3803   NI        0.781875    0.469375    0.500625     0.004307
NI3804   NI        0.813125    0.438125    0.500625     0.004307
NI3805   NI        0.813125    0.469375    0.531875     0.004307
NI3806   NI        0.844375    0.438125    0.531875     0.004307
NI3807   NI        0.844375    0.469375    0.500625     0.004307
NI3808   NI        0.875625    0.438125    0.500625     0.004307
NI3809   NI        0.031875    0.500625    0.531875     0.004307
NI3810   NI        0.031875    0.531875    0.500625     0.004307
NI3811   NI        0.063125    0.500625    0.500625     0.004307
NI3812   NI        0.063125    0.531875    0.531875     0.004307
NI3813   NI        0.094375    0.500625    0.531875     0.004307
NI3814   NI        0.094375    0.531875    0.500625     0.004307
NI3815   NI        0.125625    0.500625    0.500625     0.004307
NI3816   NI        0.125625    0.531875    0.531875     0.004307
NI3817   NI        0.156875    0.500625    0.531875     0.004307
NI3818   NI        0.156875    0.531875    0.500625     0.004307
NI3819   NI        0.188125    0.500625    0.500625     0.004307
NI3820   NI        0.188125    0.531875    0.531875     0.004307
NI3821   NI        0.219375    0.500625    0.531875     0.004307
NI3822   NI        0.219375    0.531875    0.500625     0.004307
NI3823   NI        0.250625    0.500625    0.500625     0.004307
NI3824   NI        0.250625    0.531875    0.531875     0.004307
NI3825   NI        0.281875    0.500625    0.531875     0.004307
NI3826   NI        0.281875    0.531875    0.500625     0.004307
NI3827   NI        0.313125    0.500625    0.500625     0.004307
NI3828   NI        0.313125    0.531875    0.531875     0.004307
NI3829   NI        0.344375    0.500625    0.531875     0.004307
NI3830   NI        0.344375    0.531875    0.500625     0.004307
NI3831   NI        0.375625    0.500625    0.500625     0.004307
NI3832   NI        0.375625    0.531875    0.531875     0.004307
NI3833   NI        0.406875    0.500625    0.531875     0.004307
NI3834   NI        0.406875    0.531875    0.500625     0.004307
NI3835   NI        0.438125    0.500625    0.500625     0.004307
NI3836   NI        0.438125    0.531875    0.531875     0.004307
NI3837   NI        0.469375    0.500625    0.531875     0.004307
NI3838   NI        0.469375    0.531875    0.500625     0.004307
NI3839   NI        0.500625    0.500625    0.500625     0.004307
NI3840   NI        0.500625    0.531875    0.531875     0.004307
NI3841   NI        0.531875    0.500625    0.531875     0.004307
NI3842   NI        0.531875    0.531875    0.500625     0.004307
NI3843   NI        0.563125    0.500625    0.500625     0.004307
NI3844   NI        0.563125    0.531875    0.531875     0.004307
NI3845   NI        0.594375    0.500625    0.531875     0.004307
NI3846   NI        0.594375    0.531875    0.500625     0.004307
NI3847   NI        0.625625    0.500625    0.500625     0.004307
NI3848   NI        0.625625    0.531875    0.531875     0.004307
NI3849   NI        0.656875    0.500625    0.531875     0.004307
NI3850   NI        0.656875    0.531875    0.500625     0.004307
NI3851   NI        0.688125    0.500625    0.500625     0.004307
NI3852   NI        0.688125    0.531875    0.531875     0.004307
NI3853   NI        0.719375    0.500625    0.531875     0.004307
NI3854   NI        0.719375    0.531875    0.500625     0.004307
NI3855   NI        0.750625    0.500625    0.500625     0.004307
NI3856   NI        0.750625    0.531875    0.531875     0.004307
NI3857   NI        0.781875    0.500625    0.531875     0.004307
NI3858   NI        0.781875    0.531875    0.500625     0.004307
NI3859   NI        0.813125    0.500625    0.500625     0.004307
NI3860   NI        0.813125    0.531875    0.531875     0.004307
NI3861   NI        0.844375    0.500625    0.531875     0.004307
NI3862   NI        0.844375    0.531875    0.500625     0.004307
NI3863   NI        0.031875    0.563125    0.531875     0.004307
NI3864   NI        0.031875    0.594375    0.500625     0.004307
NI3865   NI        0.063125    0.563125    0.500625     0.004307
NI3866   NI        0.063125    0.594375    0.531875     0.004307
NI3867   NI        0.094375    0.563125    0.531875     0.004307
NI3868   NI        0.094375    0.594375    0.500625     0.004307
NI3869   NI        0.125625    0.563125    0.500625     0.004307
NI3870   NI        0.125625    0.594375    0.531875     0.004307
NI3871   NI        0.156875    0.563125    0.531875     0.004307
NI3872   NI        0.156875    0.594375    0.500625     0.004307
NI3873   NI        0.188125    0.563125    0.500625     0.004307
NI3874   NI        0.188125    0.594375    0.531875     0.004307
NI3875   NI        0.219375    0.563125    0.531875     0.004307
NI3876   NI        0.219375    0.594375    0.500625     0.004307
NI3877   NI        0.250625    0.563125    0.500625     0.004307
NI3878   NI        0.250625    0.594375    0.531875     0.004307
NI3879   NI        0.281875    0.563125    0.531875     0.004307
NI3880   NI        0.281875    0.594375    0.500625     0.004307
NI3881   NI        0.313125    0.563125    0.500625     0.004307
NI3882   NI        0.313125    0.594375    0.531875     0.004307
NI3883   NI        0.344375    0.563125    0.531875     0.004307
NI3884   NI        0.344375    0.594375    0.500625     0.004307
NI3885   NI        0.375625    0.563125    0.500625     0.004307
NI3886   NI        0.375625    0.594375    0.531875     0.004307
NI3887   NI        0.406875    0.563125    0.531875     0.004307
NI3888   NI        0.406875    0.594375    0.500625     0.004307
NI3889   NI        0.438125    0.563125    0.500625     0.004307
NI3890   NI        0.438125    0.594375    0.531875     0.004307
NI3891   NI        0.469375    0.563125    0.531875     0.004307
NI3892   NI        0.469375    0.594375    0.500625     0.004307
NI3893   NI        0.500625    0.563125    0.500625     0.004307
NI3894   NI        0.500625    0.594375    0.531875     0.004307
NI3895   NI        0.531875    0.563125    0.531875     0.004307
NI3896   NI        0.531875    0.594375    0.500625     0.004307
NI3897   NI        0.563125    0.563125    0.500625     0.004307
NI3898   NI        0.563125    0.594375    0.531875     0.004307
NI3899   NI        0.594375    0.563125    0.531875     0.004307
NI3900   NI        0.594375    0.594375    0.500625     0.004307
NI3901   NI        0.625625    0.563125    0.500625     0.004307
NI3902   NI        0.625625    0.594375    0.531875     0.004307
NI3903   NI        0.656875    0.563125    0.531875     0.004307
NI3904   NI        0.656875    0.594375    0.500625     0.004307
NI3905   NI        0.688125    0.563125    0.500625     0.004307
NI3906   NI        0.688125    0.594375    0.531875     0.004307
NI3907   NI        0.719375    0.563125    0.531875     0.004307
NI3908   NI        0.719375    0.594375    0.500625     0.004307
NI3909   NI        0.750625    0.563125    0.500625     0.004307
NI3910   NI        0.750625    0.594375    0.531875     0.004307
NI3911   NI        0.781875    0.563125    0.531875     0.004307
NI3912   NI        0.781875    0.594375    0.500625     0.004307
NI3913   NI        0.813125    0.563125    0.500625     0.004307
NI3914   NI        0.813125    0.594375    0.531875     0.004307
NI3915   NI        0.844375    0.563125    0.531875     0.004307
NI3916   NI        0.844375    0.594375    0.500625     0.004307
NI3917   NI        0.063125    0.625625    0.500625     0.004307
NI3918   NI        0.094375    0.625625    0.531875     0.004307
NI3919   NI        0.094375    0.656875    0.500625     0.004307
NI3920   NI        0.125625    0.625625    0.500625     0.004307
NI3921   NI        0.125625    0.656875    0.531875     0.004307
NI3922   NI        0.156875    0.625625    0.531875     0.004307
NI3923   NI        0.156875    0.656875    0.500625     0.004307
NI3924   NI        0.188125    0.625625    0.500625     0.004307
NI3925   NI        0.188125    0.656875    0.531875     0.004307
NI3926   NI        0.219375    0.625625    0.531875     0.004307
NI3927   NI        0.219375    0.656875    0.500625     0.004307
NI3928   NI        0.250625    0.625625    0.500625     0.004307
NI3929   NI        0.250625    0.656875    0.531875     0.004307
NI3930   NI        0.281875    0.625625    0.531875     0.004307
NI3931   NI        0.281875    0.656875    0.500625     0.004307
NI3932   NI        0.313125    0.625625    0.500625     0.004307
NI3933   NI        0.313125    0.656875    0.531875     0.004307
NI3934   NI        0.344375    0.625625    0.531875     0.004307
NI3935   NI        0.344375    0.656875    0.500625     0.004307
NI3936   NI        0.375625    0.625625    0.500625     0.004307
NI3937   NI        0.375625    0.656875    0.531875     0.004307
NI3938   NI        0.406875    0.625625    0.531875     0.004307
NI3939   NI        0.406875    0.656875    0.500625     0.004307
NI3940   NI        0.438125    0.625625    0.500625     0.004307
NI3941   NI        0.438125    0.656875    0.531875     0.004307
NI3942   NI        0.469375    0.625625    0.531875     0.004307
NI3943   NI        0.469375    0.656875    0.500625     0.004307
NI3944   NI        0.500625    0.625625    0.500625     0.004307
NI3945   NI        0.500625    0.656875    0.531875     0.004307
NI3946   NI        0.531875    0.625625    0.531875     0.004307
NI3947   NI        0.531875    0.656875    0.500625     0.004307
NI3948   NI        0.563125    0.625625    0.500625     0.004307
NI3949   NI        0.563125    0.656875    0.531875     0.004307
NI3950   NI        0.594375    0.625625    0.531875     0.004307
NI3951   NI        0.594375    0.656875    0.500625     0.004307
NI3952   NI        0.625625    0.625625    0.500625     0.004307
NI3953   NI        0.625625    0.656875    0.531875     0.004307
NI3954   NI        0.656875    0.625625    0.531875     0.004307
NI3955   NI        0.656875    0.656875    0.500625     0.004307
NI3956   NI        0.688125    0.625625    0.500625     0.004307
NI3957   NI        0.688125    0.656875    0.531875     0.004307
NI3958   NI        0.719375    0.625625    0.531875     0.004307
NI3959   NI        0.719375    0.656875    0.500625     0.004307
NI3960   NI        0.750625    0.625625    0.500625     0.004307
NI3961   NI        0.750625    0.656875    0.531875     0.004307
NI3962   NI        0.781875    0.625625    0.531875     0.004307
NI3963   NI        0.781875    0.656875    0.500625     0.004307
NI3964   NI        0.813125    0.625625    0.500625     0.004307
NI3965   NI        0.094375    0.688125    0.531875     0.004307
NI3966   NI        0.125625    0.688125    0.500625     0.004307
NI3967   NI        0.125625    0.719375    0.531875     0.004307
NI3968   NI        0.156875    0.688125    0.531875     0.004307
NI3969   NI        0.156875    0.719375    0.500625     0.004307
NI3970   NI        0.188125    0.688125    0.500625     0.004307
NI3971   NI        0.188125    0.719375    0.531875     0.004307
NI3972   NI        0.219375    0.688125    0.531875     0.004307
NI3973   NI        0.219375    0.719375    0.500625     0.004307
NI3974   NI        0.250625    0.688125    0.500625     0.004307
NI3975   NI        0.250625    0.719375    0.531875     0.004307
NI3976   NI        0.281875    0.688125    0.531875     0.004307
NI3977   NI        0.281875    0.719375    0.500625     0.004307
NI3978   NI        0.313125    0.688125    0.500625     0.004307
NI3979   NI        0.313125    0.719375    0.531875     0.004307
NI3980   NI        0.344375    0.688125    0.531875     0.004307
NI3981   NI        0.344375    0.719375    0.500625     0.004307
NI3982   NI        0.375625    0.688125    0.500625     0.004307
NI3983   NI        0.375625    0.719375    0.531875     0.004307
NI3984   NI        0.406875    0.688125    0.531875     0.004307
NI3985   NI        0.406875    0.719375    0.500625     0.004307
NI3986   NI        0.438125    0.688125    0.500625     0.004307
NI3987   NI        0.438125    0.719375    0.531875     0.004307
NI3988   NI        0.469375    0.688125    0.531875     0.004307
NI3989   NI        0.469375    0.719375    0.500625     0.004307
NI3990   NI        0.500625    0.688125    0.500625     0.004307
NI3991   NI        0.500625    0.719375    0.531875     0.004307
NI3992   NI        0.531875    0.688125    0.531875     0.004307
NI3993   NI        0.531875    0.719375    0.500625     0.004307
NI3994   NI        0.563125    0.688125    0.500625     0.004307
NI3995   NI        0.563125    0.719375    0.531875     0.004307
NI3996   NI        0.594375    0.688125    0.531875     0.004307
NI3997   NI        0.594375    0.719375    0.500625     0.004307
NI3998   NI        0.625625    0.688125    0.500625     0.004307
NI3999   NI        0.625625    0.719375    0.531875     0.004307
NI4000   NI        0.656875    0.688125    0.531875     0.004307
NI4001   NI        0.656875    0.719375    0.500625     0.004307
NI4002   NI        0.688125    0.688125    0.500625     0.004307
NI4003   NI        0.688125    0.719375    0.531875     0.004307
NI4004   NI        0.719375    0.688125    0.531875     0.004307
NI4005   NI        0.719375    0.719375    0.500625     0.004307
NI4006   NI        0.750625    0.688125    0.500625     0.004307
NI4007   NI        0.750625    0.719375    0.531875     0.004307
NI4008   NI        0.781875    0.688125    0.531875     0.004307
NI4009   NI        0.156875    0.750625    0.531875     0.004307
NI4010   NI        0.188125    0.750625    0.500625     0.004307
NI4011   NI        0.188125    0.781875    0.531875     0.004307
NI4012   NI        0.219375    0.750625    0.531875     0.004307
NI4013   NI        0.219375    0.781875    0.500625     0.004307
NI4014   NI        0.250625    0.750625    0.500625     0.004307
NI4015   NI        0.250625    0.781875    0.531875     0.004307
NI4016   NI        0.281875    0.750625    0.531875     0.004307
NI4017   NI        0.281875    0.781875    0.500625     0.004307
NI4018   NI        0.313125    0.750625    0.500625     0.004307
NI4019   NI        0.313125    0.781875    0.531875     0.004307
NI4020   NI        0.344375    0.750625    0.531875     0.004307
NI4021   NI        0.344375    0.781875    0.500625     0.004307
NI4022   NI        0.375625    0.750625    0.500625     0.004307
NI4023   NI        0.375625    0.781875    0.531875     0.004307
NI4024   NI        0.406875    0.750625    0.531875     0.004307
NI4025   NI        0.406875    0.781875    0.500625     0.004307
NI4026   NI        0.438125    0.750625    0.500625     0.004307
NI4027   NI        0.438125    0.781875    0.531875     0.004307
NI4028   NI        0.469375    0.750625    0.531875     0.004307
NI4029   NI        0.469375    0.781875    0.500625     0.004307
NI4030   NI        0.500625    0.750625    0.500625     0.004307
NI4031   NI        0.500625    0.781875    0.531875     0.004307
NI4032   NI        0.531875    0.750625    0.531875     0.004307
NI4033   NI        0.531875    0.781875    0.500625     0.004307
NI4034   NI        0.563125    0.750625    0.500625     0.004307
NI4035   NI        0.563125    0.781875    0.531875     0.004307
NI4036   NI        0.594375    0.750625    0.531875     0.004307
NI4037   NI        0.594375    0.781875    0.500625     0.004307
NI4038   NI        0.625625    0.750625    0.500625     0.004307
NI4039   NI        0.625625    0.781875    0.531875     0.004307
NI4040   NI        0.656875    0.750625    0.531875     0.004307
NI4041   NI        0.656875    0.781875    0.500625     0.004307
NI4042   NI        0.688125    0.750625    0.500625     0.004307
NI4043   NI        0.688125    0.781875    0.531875     0.004307
NI4044   NI        0.719375    0.750625    0.531875     0.004307
NI4045   NI        0.250625    0.813125    0.500625     0.004307
NI4046   NI        0.281875    0.813125    0.531875     0.004307
NI4047   NI        0.281875    0.844375    0.500625     0.004307
NI4048   NI        0.313125    0.813125    0.500625     0.004307
NI4049   NI        0.313125    0.844375    0.531875     0.004307
NI4050   NI        0.344375    0.813125    0.531875     0.004307
NI4051   NI        0.344375    0.844375    0.500625     0.004307
NI4052   NI        0.375625    0.813125    0.500625     0.004307
NI4053   NI        0.375625    0.844375    0.531875     0.004307
NI4054   NI        0.406875    0.813125    0.531875     0.004307
NI4055   NI        0.406875    0.844375    0.500625     0.004307
NI4056   NI        0.438125    0.813125    0.500625     0.004307
NI4057   NI        0.438125    0.844375    0.531875     0.004307
NI4058   NI        0.469375    0.813125    0.531875     0.004307
NI4059   NI        0.469375    0.844375    0.500625     0.004307
NI4060   NI        0.500625    0.813125    0.500625     0.004307
NI4061   NI        0.500625    0.844375    0.531875     0.004307
NI4062   NI        0.531875    0.813125    0.531875     0.004307
NI4063   NI        0.531875    0.844375    0.500625     0.004307
NI4064   NI        0.563125    0.813125    0.500625     0.004307
NI4065   NI        0.563125    0.844375    0.531875     0.004307
NI4066   NI        0.594375    0.813125    0.531875     0.004307
NI4067   NI        0.594375    0.844375    0.500625     0.004307
NI4068   NI        0.625625    0.813125    0.500625     0.004307
NI4069   NI        0.438125    0.875625    0.500625     0.004307
NI4070   NI        0.344375    0.031875    0.563125     0.004307
NI4071   NI        0.375625    0.031875    0.594375     0.004307
NI4072   NI        0.406875    0.031875    0.563125     0.004307
NI4073   NI        0.438125    0.031875    0.594375     0.004307
NI4074   NI        0.469375    0.031875    0.563125     0.004307
NI4075   NI        0.500625    0.031875    0.594375     0.004307
NI4076   NI        0.531875    0.031875    0.563125     0.004307
NI4077   NI        0.219375    0.094375    0.563125     0.004307
NI4078   NI        0.250625    0.063125    0.563125     0.004307
NI4079   NI        0.250625    0.094375    0.594375     0.004307
NI4080   NI        0.281875    0.063125    0.594375     0.004307
NI4081   NI        0.281875    0.094375    0.563125     0.004307
NI4082   NI        0.313125    0.063125    0.563125     0.004307
NI4083   NI        0.313125    0.094375    0.594375     0.004307
NI4084   NI        0.344375    0.063125    0.594375     0.004307
NI4085   NI        0.344375    0.094375    0.563125     0.004307
NI4086   NI        0.375625    0.063125    0.563125     0.004307
NI4087   NI        0.375625    0.094375    0.594375     0.004307
NI4088   NI        0.406875    0.063125    0.594375     0.004307
NI4089   NI        0.406875    0.094375    0.563125     0.004307
NI4090   NI        0.438125    0.063125    0.563125     0.004307
NI4091   NI        0.438125    0.094375    0.594375     0.004307
NI4092   NI        0.469375    0.063125    0.594375     0.004307
NI4093   NI        0.469375    0.094375    0.563125     0.004307
NI4094   NI        0.500625    0.063125    0.563125     0.004307
NI4095   NI        0.500625    0.094375    0.594375     0.004307
NI4096   NI        0.531875    0.063125    0.594375     0.004307
NI4097   NI        0.531875    0.094375    0.563125     0.004307
NI4098   NI        0.563125    0.063125    0.563125     0.004307
NI4099   NI        0.563125    0.094375    0.594375     0.004307
NI4100   NI        0.594375    0.063125    0.594375     0.004307
NI4101   NI        0.594375    0.094375    0.563125     0.004307
NI4102   NI        0.625625    0.063125    0.563125     0.004307
NI4103   NI        0.625625    0.094375    0.594375     0.004307
NI4104   NI        0.656875    0.094375    0.563125     0.004307
NI4105   NI        0.156875    0.156875    0.563125     0.004307
NI4106   NI        0.188125    0.125625    0.563125     0.004307
NI4107   NI        0.188125    0.156875    0.594375     0.004307
NI4108   NI        0.219375    0.125625    0.594375     0.004307
NI4109   NI        0.219375    0.156875    0.563125     0.004307
NI4110   NI        0.250625    0.125625    0.563125     0.004307
NI4111   NI        0.250625    0.156875    0.594375     0.004307
NI4112   NI        0.281875    0.125625    0.594375     0.004307
NI4113   NI        0.281875    0.156875    0.563125     0.004307
NI4114   NI        0.313125    0.125625    0.563125     0.004307
NI4115   NI        0.313125    0.156875    0.594375     0.004307
NI4116   NI        0.344375    0.125625    0.594375     0.004307
NI4117   NI        0.344375    0.156875    0.563125     0.004307
NI4118   NI        0.375625    0.125625    0.563125     0.004307
NI4119   NI        0.375625    0.156875    0.594375     0.004307
NI4120   NI        0.406875    0.125625    0.594375     0.004307
NI4121   NI        0.406875    0.156875    0.563125     0.004307
NI4122   NI        0.438125    0.125625    0.563125     0.004307
NI4123   NI        0.438125    0.156875    0.594375     0.004307
NI4124   NI        0.469375    0.125625    0.594375     0.004307
NI4125   NI        0.469375    0.156875    0.563125     0.004307
NI4126   NI        0.500625    0.125625    0.563125     0.004307
NI4127   NI        0.500625    0.156875    0.594375     0.004307
NI4128   NI        0.531875    0.125625    0.594375     0.004307
NI4129   NI        0.531875    0.156875    0.563125     0.004307
NI4130   NI        0.563125    0.125625    0.563125     0.004307
NI4131   NI        0.563125    0.156875    0.594375     0.004307
NI4132   NI        0.594375    0.125625    0.594375     0.004307
NI4133   NI        0.594375    0.156875    0.563125     0.004307
NI4134   NI        0.625625    0.125625    0.563125     0.004307
NI4135   NI        0.625625    0.156875    0.594375     0.004307
NI4136   NI        0.656875    0.125625    0.594375     0.004307
NI4137   NI        0.656875    0.156875    0.563125     0.004307
NI4138   NI        0.688125    0.125625    0.563125     0.004307
NI4139   NI        0.688125    0.156875    0.594375     0.004307
NI4140   NI        0.719375    0.156875    0.563125     0.004307
NI4141   NI        0.094375    0.219375    0.563125     0.004307
NI4142   NI        0.125625    0.188125    0.563125     0.004307
NI4143   NI        0.125625    0.219375    0.594375     0.004307
NI4144   NI        0.156875    0.188125    0.594375     0.004307
NI4145   NI        0.156875    0.219375    0.563125     0.004307
NI4146   NI        0.188125    0.188125    0.563125     0.004307
NI4147   NI        0.188125    0.219375    0.594375     0.004307
NI4148   NI        0.219375    0.188125    0.594375     0.004307
NI4149   NI        0.219375    0.219375    0.563125     0.004307
NI4150   NI        0.250625    0.188125    0.563125     0.004307
NI4151   NI        0.250625    0.219375    0.594375     0.004307
NI4152   NI        0.281875    0.188125    0.594375     0.004307
NI4153   NI        0.281875    0.219375    0.563125     0.004307
NI4154   NI        0.313125    0.188125    0.563125     0.004307
NI4155   NI        0.313125    0.219375    0.594375     0.004307
NI4156   NI        0.344375    0.188125    0.594375     0.004307
NI4157   NI        0.344375    0.219375    0.563125     0.004307
NI4158   NI        0.375625    0.188125    0.563125     0.004307
NI4159   NI        0.375625    0.219375    0.594375     0.004307
NI4160   NI        0.406875    0.188125    0.594375     0.004307
NI4161   NI        0.406875    0.219375    0.563125     0.004307
NI4162   NI        0.438125    0.188125    0.563125     0.004307
NI4163   NI        0.438125    0.219375    0.594375     0.004307
NI4164   NI        0.469375    0.188125    0.594375     0.004307
NI4165   NI        0.469375    0.219375    0.563125     0.004307
NI4166   NI        0.500625    0.188125    0.563125     0.004307
NI4167   NI        0.500625    0.219375    0.594375     0.004307
NI4168   NI        0.531875    0.188125    0.594375     0.004307
NI4169   NI        0.531875    0.219375    0.563125     0.004307
NI4170   NI        0.563125    0.188125    0.563125     0.004307
NI4171   NI        0.563125    0.219375    0.594375     0.004307
NI4172   NI        0.594375    0.188125    0.594375     0.004307
NI4173   NI        0.594375    0.219375    0.563125     0.004307
NI4174   NI        0.625625    0.188125    0.563125     0.004307
NI4175   NI        0.625625    0.219375    0.594375     0.004307
NI4176   NI        0.656875    0.188125    0.594375     0.004307
NI4177   NI        0.656875    0.219375    0.563125     0.004307
NI4178   NI        0.688125    0.188125    0.563125     0.004307
NI4179   NI        0.688125    0.219375    0.594375     0.004307
NI4180   NI        0.719375    0.188125    0.594375     0.004307
NI4181   NI        0.719375    0.219375    0.563125     0.004307
NI4182   NI        0.750625    0.188125    0.563125     0.004307
NI4183   NI        0.750625    0.219375    0.594375     0.004307
NI4184   NI        0.781875    0.219375    0.563125     0.004307
NI4185   NI        0.063125    0.250625    0.563125     0.004307
NI4186   NI        0.063125    0.281875    0.594375     0.004307
NI4187   NI        0.094375    0.250625    0.594375     0.004307
NI4188   NI        0.094375    0.281875    0.563125     0.004307
NI4189   NI        0.125625    0.250625    0.563125     0.004307
NI4190   NI        0.125625    0.281875    0.594375     0.004307
NI4191   NI        0.156875    0.250625    0.594375     0.004307
NI4192   NI        0.156875    0.281875    0.563125     0.004307
NI4193   NI        0.188125    0.250625    0.563125     0.004307
NI4194   NI        0.188125    0.281875    0.594375     0.004307
NI4195   NI        0.219375    0.250625    0.594375     0.004307
NI4196   NI        0.219375    0.281875    0.563125     0.004307
NI4197   NI        0.250625    0.250625    0.563125     0.004307
NI4198   NI        0.250625    0.281875    0.594375     0.004307
NI4199   NI        0.281875    0.250625    0.594375     0.004307
NI4200   NI        0.281875    0.281875    0.563125     0.004307
NI4201   NI        0.313125    0.250625    0.563125     0.004307
NI4202   NI        0.313125    0.281875    0.594375     0.004307
NI4203   NI        0.344375    0.250625    0.594375     0.004307
NI4204   NI        0.344375    0.281875    0.563125     0.004307
NI4205   NI        0.375625    0.250625    0.563125     0.004307
NI4206   NI        0.375625    0.281875    0.594375     0.004307
NI4207   NI        0.406875    0.250625    0.594375     0.004307
NI4208   NI        0.406875    0.281875    0.563125     0.004307
NI4209   NI        0.438125    0.250625    0.563125     0.004307
NI4210   NI        0.438125    0.281875    0.594375     0.004307
NI4211   NI        0.469375    0.250625    0.594375     0.004307
NI4212   NI        0.469375    0.281875    0.563125     0.004307
NI4213   NI        0.500625    0.250625    0.563125     0.004307
NI4214   NI        0.500625    0.281875    0.594375     0.004307
NI4215   NI        0.531875    0.250625    0.594375     0.004307
NI4216   NI        0.531875    0.281875    0.563125     0.004307
NI4217   NI        0.563125    0.250625    0.563125     0.004307
NI4218   NI        0.563125    0.281875    0.594375     0.004307
NI4219   NI        0.594375    0.250625    0.594375     0.004307
NI4220   NI        0.594375    0.281875    0.563125     0.004307
NI4221   NI        0.625625    0.250625    0.563125     0.004307
NI4222   NI        0.625625    0.281875    0.594375     0.004307
NI4223   NI        0.656875    0.250625    0.594375     0.004307
NI4224   NI        0.656875    0.281875    0.563125     0.004307
NI4225   NI        0.688125    0.250625    0.563125     0.004307
NI4226   NI        0.688125    0.281875    0.594375     0.004307
NI4227   NI        0.719375    0.250625    0.594375     0.004307
NI4228   NI        0.719375    0.281875    0.563125     0.004307
NI4229   NI        0.750625    0.250625    0.563125     0.004307
NI4230   NI        0.750625    0.281875    0.594375     0.004307
NI4231   NI        0.781875    0.250625    0.594375     0.004307
NI4232   NI        0.781875    0.281875    0.563125     0.004307
NI4233   NI        0.813125    0.250625    0.563125     0.004307
NI4234   NI        0.813125    0.281875    0.594375     0.004307
NI4235   NI        0.031875    0.344375    0.563125     0.004307
NI4236   NI        0.063125    0.313125    0.563125     0.004307
NI4237   NI        0.063125    0.344375    0.594375     0.004307
NI4238   NI        0.094375    0.313125    0.594375     0.004307
NI4239   NI        0.094375    0.344375    0.563125     0.004307
NI4240   NI        0.125625    0.313125    0.563125     0.004307
NI4241   NI        0.125625    0.344375    0.594375     0.004307
NI4242   NI        0.156875    0.313125    0.594375     0.004307
NI4243   NI        0.156875    0.344375    0.563125     0.004307
NI4244   NI        0.188125    0.313125    0.563125     0.004307
NI4245   NI        0.188125    0.344375    0.594375     0.004307
NI4246   NI        0.219375    0.313125    0.594375     0.004307
NI4247   NI        0.219375    0.344375    0.563125     0.004307
NI4248   NI        0.250625    0.313125    0.563125     0.004307
NI4249   NI        0.250625    0.344375    0.594375     0.004307
NI4250   NI        0.281875    0.313125    0.594375     0.004307
NI4251   NI        0.281875    0.344375    0.563125     0.004307
NI4252   NI        0.313125    0.313125    0.563125     0.004307
NI4253   NI        0.313125    0.344375    0.594375     0.004307
NI4254   NI        0.344375    0.313125    0.594375     0.004307
NI4255   NI        0.344375    0.344375    0.563125     0.004307
NI4256   NI        0.375625    0.313125    0.563125     0.004307
NI4257   NI        0.375625    0.344375    0.594375     0.004307
NI4258   NI        0.406875    0.313125    0.594375     0.004307
NI4259   NI        0.406875    0.344375    0.563125     0.004307
NI4260   NI        0.438125    0.313125    0.563125     0.004307
NI4261   NI        0.438125    0.344375    0.594375     0.004307
NI4262   NI        0.469375    0.313125    0.594375     0.004307
NI4263   NI        0.469375    0.344375    0.563125     0.004307
NI4264   NI        0.500625    0.313125    0.563125     0.004307
NI4265   NI        0.500625    0.344375    0.594375     0.004307
NI4266   NI        0.531875    0.313125    0.594375     0.004307
NI4267   NI        0.531875    0.344375    0.563125     0.004307
NI4268   NI        0.563125    0.313125    0.563125     0.004307
NI4269   NI        0.563125    0.344375    0.594375     0.004307
NI4270   NI        0.594375    0.313125    0.594375     0.004307
NI4271   NI        0.594375    0.344375    0.563125     0.004307
NI4272   NI        0.625625    0.313125    0.563125     0.004307
NI4273   NI        0.625625    0.344375    0.594375     0.004307
NI4274   NI        0.656875    0.313125    0.594375     0.004307
NI4275   NI        0.656875    0.344375    0.563125     0.004307
NI4276   NI        0.688125    0.313125    0.563125     0.004307
NI4277   NI        0.688125    0.344375    0.594375     0.004307
NI4278   NI        0.719375    0.313125    0.594375     0.004307
NI4279   NI        0.719375    0.344375    0.563125     0.004307
NI4280   NI        0.750625    0.313125    0.563125     0.004307
NI4281   NI        0.750625    0.344375    0.594375     0.004307
NI4282   NI        0.781875    0.313125    0.594375     0.004307
NI4283   NI        0.781875    0.344375    0.563125     0.004307
NI4284   NI        0.813125    0.313125    0.563125     0.004307
NI4285   NI        0.813125    0.344375    0.594375     0.004307
NI4286   NI        0.844375    0.344375    0.563125     0.004307
NI4287   NI        0.031875    0.375625    0.594375     0.004307
NI4288   NI        0.031875    0.406875    0.563125     0.004307
NI4289   NI        0.063125    0.375625    0.563125     0.004307
NI4290   NI        0.063125    0.406875    0.594375     0.004307
NI4291   NI        0.094375    0.375625    0.594375     0.004307
NI4292   NI        0.094375    0.406875    0.563125     0.004307
NI4293   NI        0.125625    0.375625    0.563125     0.004307
NI4294   NI        0.125625    0.406875    0.594375     0.004307
NI4295   NI        0.156875    0.375625    0.594375     0.004307
NI4296   NI        0.156875    0.406875    0.563125     0.004307
NI4297   NI        0.188125    0.375625    0.563125     0.004307
NI4298   NI        0.188125    0.406875    0.594375     0.004307
NI4299   NI        0.219375    0.375625    0.594375     0.004307
NI4300   NI        0.219375    0.406875    0.563125     0.004307
NI4301   NI        0.250625    0.375625    0.563125     0.004307
NI4302   NI        0.250625    0.406875    0.594375     0.004307
NI4303   NI        0.281875    0.375625    0.594375     0.004307
NI4304   NI        0.281875    0.406875    0.563125     0.004307
NI4305   NI        0.313125    0.375625    0.563125     0.004307
NI4306   NI        0.313125    0.406875    0.594375     0.004307
NI4307   NI        0.344375    0.375625    0.594375     0.004307
NI4308   NI        0.344375    0.406875    0.563125     0.004307
NI4309   NI        0.375625    0.375625    0.563125     0.004307
NI4310   NI        0.375625    0.406875    0.594375     0.004307
NI4311   NI        0.406875    0.375625    0.594375     0.004307
NI4312   NI        0.406875    0.406875    0.563125     0.004307
NI4313   NI        0.438125    0.375625    0.563125     0.004307
NI4314   NI        0.438125    0.406875    0.594375     0.004307
NI4315   NI        0.469375    0.375625    0.594375     0.004307
NI4316   NI        0.469375    0.406875    0.563125     0.004307
NI4317   NI        0.500625    0.375625    0.563125     0.004307
NI4318   NI        0.500625    0.406875    0.594375     0.004307
NI4319   NI        0.531875    0.375625    0.594375     0.004307
NI4320   NI        0.531875    0.406875    0.563125     0.004307
NI4321   NI        0.563125    0.375625    0.563125     0.004307
NI4322   NI        0.563125    0.406875    0.594375     0.004307
NI4323   NI        0.594375    0.375625    0.594375     0.004307
NI4324   NI        0.594375    0.406875    0.563125     0.004307
NI4325   NI        0.625625    0.375625    0.563125     0.004307
NI4326   NI        0.625625    0.406875    0.594375     0.004307
NI4327   NI        0.656875    0.375625    0.594375     0.004307
NI4328   NI        0.656875    0.406875    0.563125     0.004307
NI4329   NI        0.688125    0.375625    0.563125     0.004307
NI4330   NI        0.688125    0.406875    0.594375     0.004307
NI4331   NI        0.719375    0.375625    0.594375     0.004307
NI4332   NI        0.719375    0.406875    0.563125     0.004307
NI4333   NI        0.750625    0.375625    0.563125     0.004307
NI4334   NI        0.750625    0.406875    0.594375     0.004307
NI4335   NI        0.781875    0.375625    0.594375     0.004307
NI4336   NI        0.781875    0.406875    0.563125     0.004307
NI4337   NI        0.813125    0.375625    0.563125     0.004307
NI4338   NI        0.813125    0.406875    0.594375     0.004307
NI4339   NI        0.844375    0.375625    0.594375     0.004307
NI4340   NI        0.844375    0.406875    0.563125     0.004307
NI4341   NI        0.031875    0.438125    0.594375     0.004307
NI4342   NI        0.031875    0.469375    0.563125     0.004307
NI4343   NI        0.063125    0.438125    0.563125     0.004307
NI4344   NI        0.063125    0.469375    0.594375     0.004307
NI4345   NI        0.094375    0.438125    0.594375     0.004307
NI4346   NI        0.094375    0.469375    0.563125     0.004307
NI4347   NI        0.125625    0.438125    0.563125     0.004307
NI4348   NI        0.125625    0.469375    0.594375     0.004307
NI4349   NI        0.156875    0.438125    0.594375     0.004307
NI4350   NI        0.156875    0.469375    0.563125     0.004307
NI4351   NI        0.188125    0.438125    0.563125     0.004307
NI4352   NI        0.188125    0.469375    0.594375     0.004307
NI4353   NI        0.219375    0.438125    0.594375     0.004307
NI4354   NI        0.219375    0.469375    0.563125     0.004307
NI4355   NI        0.250625    0.438125    0.563125     0.004307
NI4356   NI        0.250625    0.469375    0.594375     0.004307
NI4357   NI        0.281875    0.438125    0.594375     0.004307
NI4358   NI        0.281875    0.469375    0.563125     0.004307
NI4359   NI        0.313125    0.438125    0.563125     0.004307
NI4360   NI        0.313125    0.469375    0.594375     0.004307
NI4361   NI        0.344375    0.438125    0.594375     0.004307
NI4362   NI        0.344375    0.469375    0.563125     0.004307
NI4363   NI        0.375625    0.438125    0.563125     0.004307
NI4364   NI        0.375625    0.469375    0.594375     0.004307
NI4365   NI        0.406875    0.438125    0.594375     0.004307
NI4366   NI        0.406875    0.469375    0.563125     0.004307
NI4367   NI        0.438125    0.438125    0.563125     0.004307
NI4368   NI        0.438125    0.469375    0.594375     0.004307
NI4369   NI        0.469375    0.438125    0.594375     0.004307
NI4370   NI        0.469375    0.469375    0.563125     0.004307
NI4371   NI        0.500625    0.438125    0.563125     0.004307
NI4372   NI        0.500625    0.469375    0.594375     0.004307
NI4373   NI        0.531875    0.438125    0.594375     0.004307
NI4374   NI        0.531875    0.469375    0.563125     0.004307
NI4375   NI        0.563125    0.438125    0.563125     0.004307
NI4376   NI        0.563125    0.469375    0.594375     0.004307
NI4377   NI        0.594375    0.438125    0.594375     0.004307
NI4378   NI        0.594375    0.469375    0.563125     0.004307
NI4379   NI        0.625625    0.438125    0.563125     0.004307
NI4380   NI        0.625625    0.469375    0.594375     0.004307
NI4381   NI        0.656875    0.438125    0.594375     0.004307
NI4382   NI        0.656875    0.469375    0.563125     0.004307
NI4383   NI        0.688125    0.438125    0.563125     0.004307
NI4384   NI        0.688125    0.469375    0.594375     0.004307
NI4385   NI        0.719375    0.438125    0.594375     0.004307
NI4386   NI        0.719375    0.469375    0.563125     0.004307
NI4387   NI        0.750625    0.438125    0.563125     0.004307
NI4388   NI        0.750625    0.469375    0.594375     0.004307
NI4389   NI        0.781875    0.438125    0.594375     0.004307
NI4390   NI        0.781875    0.469375    0.563125     0.004307
NI4391   NI        0.813125    0.438125    0.563125     0.004307
NI4392   NI        0.813125    0.469375    0.594375     0.004307
NI4393   NI        0.844375    0.438125    0.594375     0.004307
NI4394   NI        0.844375    0.469375    0.563125     0.004307
NI4395   NI        0.031875    0.500625    0.594375     0.004307
NI4396   NI        0.031875    0.531875    0.563125     0.004307
NI4397   NI        0.063125    0.500625    0.563125     0.004307
NI4398   NI        0.063125    0.531875    0.594375     0.004307
NI4399   NI        0.094375    0.500625    0.594375     0.004307
NI4400   NI        0.094375    0.531875    0.563125     0.004307
NI4401   NI        0.125625    0.500625    0.563125     0.004307
NI4402   NI        0.125625    0.531875    0.594375     0.004307
NI4403   NI        0.156875    0.500625    0.594375     0.004307
NI4404   NI        0.156875    0.531875    0.563125     0.004307
NI4405   NI        0.188125    0.500625    0.563125     0.004307
NI4406   NI        0.188125    0.531875    0.594375     0.004307
NI4407   NI        0.219375    0.500625    0.594375     0.004307
NI4408   NI        0.219375    0.531875    0.563125     0.004307
NI4409   NI        0.250625    0.500625    0.563125     0.004307
NI4410   NI        0.250625    0.531875    0.594375     0.004307
NI4411   NI        0.281875    0.500625    0.594375     0.004307
NI4412   NI        0.281875    0.531875    0.563125     0.004307
NI4413   NI        0.313125    0.500625    0.563125     0.004307
NI4414   NI        0.313125    0.531875    0.594375     0.004307
NI4415   NI        0.344375    0.500625    0.594375     0.004307
NI4416   NI        0.344375    0.531875    0.563125     0.004307
NI4417   NI        0.375625    0.500625    0.563125     0.004307
NI4418   NI        0.375625    0.531875    0.594375     0.004307
NI4419   NI        0.406875    0.500625    0.594375     0.004307
NI4420   NI        0.406875    0.531875    0.563125     0.004307
NI4421   NI        0.438125    0.500625    0.563125     0.004307
NI4422   NI        0.438125    0.531875    0.594375     0.004307
NI4423   NI        0.469375    0.500625    0.594375     0.004307
NI4424   NI        0.469375    0.531875    0.563125     0.004307
NI4425   NI        0.500625    0.500625    0.563125     0.004307
NI4426   NI        0.500625    0.531875    0.594375     0.004307
NI4427   NI        0.531875    0.500625    0.594375     0.004307
NI4428   NI        0.531875    0.531875    0.563125     0.004307
NI4429   NI        0.563125    0.500625    0.563125     0.004307
NI4430   NI        0.563125    0.531875    0.594375     0.004307
NI4431   NI        0.594375    0.500625    0.594375     0.004307
NI4432   NI        0.594375    0.531875    0.563125     0.004307
NI4433   NI        0.625625    0.500625    0.563125     0.004307
NI4434   NI        0.625625    0.531875    0.594375     0.004307
NI4435   NI        0.656875    0.500625    0.594375     0.004307
NI4436   NI        0.656875    0.531875    0.563125     0.004307
NI4437   NI        0.688125    0.500625    0.563125     0.004307
NI4438   NI        0.688125    0.531875    0.594375     0.004307
NI4439   NI        0.719375    0.500625    0.594375     0.004307
NI4440   NI        0.719375    0.531875    0.563125     0.004307
NI4441   NI        0.750625    0.500625    0.563125     0.004307
NI4442   NI        0.750625    0.531875    0.594375     0.004307
NI4443   NI        0.781875    0.500625    0.594375     0.004307
NI4444   NI        0.781875    0.531875    0.563125     0.004307
NI4445   NI        0.813125    0.500625    0.563125     0.004307
NI4446   NI        0.813125    0.531875    0.594375     0.004307
NI4447   NI        0.844375    0.500625    0.594375     0.004307
NI4448   NI        0.844375    0.531875    0.563125     0.004307
NI4449   NI        0.063125    0.563125    0.563125     0.004307
NI4450   NI        0.063125    0.594375    0.594375     0.004307
NI4451   NI        0.094375    0.563125    0.594375     0.004307
NI4452   NI        0.094375    0.594375    0.563125     0.004307
NI4453   NI        0.125625    0.563125    0.563125     0.004307
NI4454   NI        0.125625    0.594375    0.594375     0.004307
NI4455   NI        0.156875    0.563125    0.594375     0.004307
NI4456   NI        0.156875    0.594375    0.563125     0.004307
NI4457   NI        0.188125    0.563125    0.563125     0.004307
NI4458   NI        0.188125    0.594375    0.594375     0.004307
NI4459   NI        0.219375    0.563125    0.594375     0.004307
NI4460   NI        0.219375    0.594375    0.563125     0.004307
NI4461   NI        0.250625    0.563125    0.563125     0.004307
NI4462   NI        0.250625    0.594375    0.594375     0.004307
NI4463   NI        0.281875    0.563125    0.594375     0.004307
NI4464   NI        0.281875    0.594375    0.563125     0.004307
NI4465   NI        0.313125    0.563125    0.563125     0.004307
NI4466   NI        0.313125    0.594375    0.594375     0.004307
NI4467   NI        0.344375    0.563125    0.594375     0.004307
NI4468   NI        0.344375    0.594375    0.563125     0.004307
NI4469   NI        0.375625    0.563125    0.563125     0.004307
NI4470   NI        0.375625    0.594375    0.594375     0.004307
NI4471   NI        0.406875    0.563125    0.594375     0.004307
NI4472   NI        0.406875    0.594375    0.563125     0.004307
NI4473   NI        0.438125    0.563125    0.563125     0.004307
NI4474   NI        0.438125    0.594375    0.594375     0.004307
NI4475   NI        0.469375    0.563125    0.594375     0.004307
NI4476   NI        0.469375    0.594375    0.563125     0.004307
NI4477   NI        0.500625    0.563125    0.563125     0.004307
NI4478   NI        0.500625    0.594375    0.594375     0.004307
NI4479   NI        0.531875    0.563125    0.594375     0.004307
NI4480   NI        0.531875    0.594375    0.563125     0.004307
NI4481   NI        0.563125    0.563125    0.563125     0.004307
NI4482   NI        0.563125    0.594375    0.594375     0.004307
NI4483   NI        0.594375    0.563125    0.594375     0.004307
NI4484   NI        0.594375    0.594375    0.563125     0.004307
NI4485   NI        0.625625    0.563125    0.563125     0.004307
NI4486   NI        0.625625    0.594375    0.594375     0.004307
NI4487   NI        0.656875    0.563125    0.594375     0.004307
NI4488   NI        0.656875    0.594375    0.563125     0.004307
NI4489   NI        0.688125    0.563125    0.563125     0.004307
NI4490   NI        0.688125    0.594375    0.594375     0.004307
NI4491   NI        0.719375    0.563125    0.594375     0.004307
NI4492   NI        0.719375    0.594375    0.563125     0.004307
NI4493   NI        0.750625    0.563125    0.563125     0.004307
NI4494   NI        0.750625    0.594375    0.594375     0.004307
NI4495   NI        0.781875    0.563125    0.594375     0.004307
NI4496   NI        0.781875    0.594375    0.563125     0.004307
NI4497   NI        0.813125    0.563125    0.563125     0.004307
NI4498   NI        0.813125    0.594375    0.594375     0.004307
NI4499   NI        0.063125    0.625625    0.563125     0.004307
NI4500   NI        0.094375    0.625625    0.594375     0.004307
NI4501   NI        0.094375    0.656875    0.563125     0.004307
NI4502   NI        0.125625    0.625625    0.563125     0.004307
NI4503   NI        0.125625    0.656875    0.594375     0.004307
NI4504   NI        0.156875    0.625625    0.594375     0.004307
NI4505   NI        0.156875    0.656875    0.563125     0.004307
NI4506   NI        0.188125    0.625625    0.563125     0.004307
NI4507   NI        0.188125    0.656875    0.594375     0.004307
NI4508   NI        0.219375    0.625625    0.594375     0.004307
NI4509   NI        0.219375    0.656875    0.563125     0.004307
NI4510   NI        0.250625    0.625625    0.563125     0.004307
NI4511   NI        0.250625    0.656875    0.594375     0.004307
NI4512   NI        0.281875    0.625625    0.594375     0.004307
NI4513   NI        0.281875    0.656875    0.563125     0.004307
NI4514   NI        0.313125    0.625625    0.563125     0.004307
NI4515   NI        0.313125    0.656875    0.594375     0.004307
NI4516   NI        0.344375    0.625625    0.594375     0.004307
NI4517   NI        0.344375    0.656875    0.563125     0.004307
NI4518   NI        0.375625    0.625625    0.563125     0.004307
NI4519   NI        0.375625    0.656875    0.594375     0.004307
NI4520   NI        0.406875    0.625625    0.594375     0.004307
NI4521   NI        0.406875    0.656875    0.563125     0.004307
NI4522   NI        0.438125    0.625625    0.563125     0.004307
NI4523   NI        0.438125    0.656875    0.594375     0.004307
NI4524   NI        0.469375    0.625625    0.594375     0.004307
NI4525   NI        0.469375    0.656875    0.563125     0.004307
NI4526   NI        0.500625    0.625625    0.563125     0.004307
NI4527   NI        0.500625    0.656875    0.594375     0.004307
NI4528   NI        0.531875    0.625625    0.594375     0.004307
NI4529   NI        0.531875    0.656875    0.563125     0.004307
NI4530   NI        0.563125    0.625625    0.563125     0.004307
NI4531   NI        0.563125    0.656875    0.594375     0.004307
NI4532   NI        0.594375    0.625625    0.594375     0.004307
NI4533   NI        0.594375    0.656875    0.563125     0.004307
NI4534   NI        0.625625    0.625625    0.563125     0.004307
NI4535   NI        0.625625    0.656875    0.594375     0.004307
NI4536   NI        0.656875    0.625625    0.594375     0.004307
NI4537   NI        0.656875    0.656875    0.563125     0.004307
NI4538   NI        0.688125    0.625625    0.563125     0.004307
NI4539   NI        0.688125    0.656875    0.594375     0.004307
NI4540   NI        0.719375    0.625625    0.594375     0.004307
NI4541   NI        0.719375    0.656875    0.563125     0.004307
NI4542   NI        0.750625    0.625625    0.563125     0.004307
NI4543   NI        0.750625    0.656875    0.594375     0.004307
NI4544   NI        0.781875    0.625625    0.594375     0.004307
NI4545   NI        0.781875    0.656875    0.563125     0.004307
NI4546   NI        0.813125    0.625625    0.563125     0.004307
NI4547   NI        0.125625    0.688125    0.563125     0.004307
NI4548   NI        0.156875    0.688125    0.594375     0.004307
NI4549   NI        0.156875    0.719375    0.563125     0.004307
NI4550   NI        0.188125    0.688125    0.563125     0.004307
NI4551   NI        0.188125    0.719375    0.594375     0.004307
NI4552   NI        0.219375    0.688125    0.594375     0.004307
NI4553   NI        0.219375    0.719375    0.563125     0.004307
NI4554   NI        0.250625    0.688125    0.563125     0.004307
NI4555   NI        0.250625    0.719375    0.594375     0.004307
NI4556   NI        0.281875    0.688125    0.594375     0.004307
NI4557   NI        0.281875    0.719375    0.563125     0.004307
NI4558   NI        0.313125    0.688125    0.563125     0.004307
NI4559   NI        0.313125    0.719375    0.594375     0.004307
NI4560   NI        0.344375    0.688125    0.594375     0.004307
NI4561   NI        0.344375    0.719375    0.563125     0.004307
NI4562   NI        0.375625    0.688125    0.563125     0.004307
NI4563   NI        0.375625    0.719375    0.594375     0.004307
NI4564   NI        0.406875    0.688125    0.594375     0.004307
NI4565   NI        0.406875    0.719375    0.563125     0.004307
NI4566   NI        0.438125    0.688125    0.563125     0.004307
NI4567   NI        0.438125    0.719375    0.594375     0.004307
NI4568   NI        0.469375    0.688125    0.594375     0.004307
NI4569   NI        0.469375    0.719375    0.563125     0.004307
NI4570   NI        0.500625    0.688125    0.563125     0.004307
NI4571   NI        0.500625    0.719375    0.594375     0.004307
NI4572   NI        0.531875    0.688125    0.594375     0.004307
NI4573   NI        0.531875    0.719375    0.563125     0.004307
NI4574   NI        0.563125    0.688125    0.563125     0.004307
NI4575   NI        0.563125    0.719375    0.594375     0.004307
NI4576   NI        0.594375    0.688125    0.594375     0.004307
NI4577   NI        0.594375    0.719375    0.563125     0.004307
NI4578   NI        0.625625    0.688125    0.563125     0.004307
NI4579   NI        0.625625    0.719375    0.594375     0.004307
NI4580   NI        0.656875    0.688125    0.594375     0.004307
NI4581   NI        0.656875    0.719375    0.563125     0.004307
NI4582   NI        0.688125    0.688125    0.563125     0.004307
NI4583   NI        0.688125    0.719375    0.594375     0.004307
NI4584   NI        0.719375    0.688125    0.594375     0.004307
NI4585   NI        0.719375    0.719375    0.563125     0.004307
NI4586   NI        0.750625    0.688125    0.563125     0.004307
NI4587   NI        0.188125    0.750625    0.563125     0.004307
NI4588   NI        0.219375    0.750625    0.594375     0.004307
NI4589   NI        0.219375    0.781875    0.563125     0.004307
NI4590   NI        0.250625    0.750625    0.563125     0.004307
NI4591   NI        0.250625    0.781875    0.594375     0.004307
NI4592   NI        0.281875    0.750625    0.594375     0.004307
NI4593   NI        0.281875    0.781875    0.563125     0.004307
NI4594   NI        0.313125    0.750625    0.563125     0.004307
NI4595   NI        0.313125    0.781875    0.594375     0.004307
NI4596   NI        0.344375    0.750625    0.594375     0.004307
NI4597   NI        0.344375    0.781875    0.563125     0.004307
NI4598   NI        0.375625    0.750625    0.563125     0.004307
NI4599   NI        0.375625    0.781875    0.594375     0.004307
NI4600   NI        0.406875    0.750625    0.594375     0.004307
NI4601   NI        0.406875    0.781875    0.563125     0.004307
NI4602   NI        0.438125    0.750625    0.563125     0.004307
NI4603   NI        0.438125    0.781875    0.594375     0.004307
NI4604   NI        0.469375    0.750625    0.594375     0.004307
NI4605   NI        0.469375    0.781875    0.563125     0.004307
NI4606   NI        0.500625    0.750625    0.563125     0.004307
NI4607   NI        0.500625    0.781875    0.594375     0.004307
NI4608   NI        0.531875    0.750625    0.594375     0.004307
NI4609   NI        0.531875    0.781875    0.563125     0.004307
NI4610   NI        0.563125    0.750625    0.563125     0.004307
NI4611   NI        0.563125    0.781875    0.594375     0.004307
NI4612   NI        0.594375    0.750625    0.594375     0.004307
NI4613   NI        0.594375    0.781875    0.563125     0.004307
NI4614   NI        0.625625    0.750625    0.563125     0.004307
NI4615   NI        0.625625    0.781875    0.594375     0.004307
NI4616   NI        0.656875    0.750625    0.594375     0.004307
NI4617   NI        0.656875    0.781875    0.563125     0.004307
NI4618   NI        0.688125    0.750625    0.563125     0.004307
NI4619   NI        0.250625    0.813125    0.563125     0.004307
NI4620   NI        0.281875    0.813125    0.594375     0.004307
NI4621   NI        0.313125    0.813125    0.563125     0.004307
NI4622   NI        0.344375    0.813125    0.594375     0.004307
NI4623   NI        0.344375    0.844375    0.563125     0.004307
NI4624   NI        0.375625    0.813125    0.563125     0.004307
NI4625   NI        0.375625    0.844375    0.594375     0.004307
NI4626   NI        0.406875    0.813125    0.594375     0.004307
NI4627   NI        0.406875    0.844375    0.563125     0.004307
NI4628   NI        0.438125    0.813125    0.563125     0.004307
NI4629   NI        0.438125    0.844375    0.594375     0.004307
NI4630   NI        0.469375    0.813125    0.594375     0.004307
NI4631   NI        0.469375    0.844375    0.563125     0.004307
NI4632   NI        0.500625    0.813125    0.563125     0.004307
NI4633   NI        0.500625    0.844375    0.594375     0.004307
NI4634   NI        0.531875    0.813125    0.594375     0.004307
NI4635   NI        0.531875    0.844375    0.563125     0.004307
NI4636   NI        0.563125    0.813125    0.563125     0.004307
NI4637   NI        0.594375    0.813125    0.594375     0.004307
NI4638   NI        0.625625    0.813125    0.563125     0.004307
NI4639   NI        0.281875    0.094375    0.625625     0.004307
NI4640   NI        0.313125    0.063125    0.625625     0.004307
NI4641   NI        0.313125    0.094375    0.656875     0.004307
NI4642   NI        0.344375    0.094375    0.625625     0.004307
NI4643   NI        0.375625    0.063125    0.625625     0.004307
NI4644   NI        0.375625    0.094375    0.656875     0.004307
NI4645   NI        0.406875    0.063125    0.656875     0.004307
NI4646   NI        0.406875    0.094375    0.625625     0.004307
NI4647   NI        0.438125    0.063125    0.625625     0.004307
NI4648   NI        0.438125    0.094375    0.656875     0.004307
NI4649   NI        0.469375    0.063125    0.656875     0.004307
NI4650   NI        0.469375    0.094375    0.625625     0.004307
NI4651   NI        0.500625    0.063125    0.625625     0.004307
NI4652   NI        0.500625    0.094375    0.656875     0.004307
NI4653   NI        0.531875    0.094375    0.625625     0.004307
NI4654   NI        0.563125    0.063125    0.625625     0.004307
NI4655   NI        0.563125    0.094375    0.656875     0.004307
NI4656   NI        0.594375    0.094375    0.625625     0.004307
NI4657   NI        0.156875    0.156875    0.625625     0.004307
NI4658   NI        0.188125    0.125625    0.625625     0.004307
NI4659   NI        0.188125    0.156875    0.656875     0.004307
NI4660   NI        0.219375    0.125625    0.656875     0.004307
NI4661   NI        0.219375    0.156875    0.625625     0.004307
NI4662   NI        0.250625    0.125625    0.625625     0.004307
NI4663   NI        0.250625    0.156875    0.656875     0.004307
NI4664   NI        0.281875    0.125625    0.656875     0.004307
NI4665   NI        0.281875    0.156875    0.625625     0.004307
NI4666   NI        0.313125    0.125625    0.625625     0.004307
NI4667   NI        0.313125    0.156875    0.656875     0.004307
NI4668   NI        0.344375    0.125625    0.656875     0.004307
NI4669   NI        0.344375    0.156875    0.625625     0.004307
NI4670   NI        0.375625    0.125625    0.625625     0.004307
NI4671   NI        0.375625    0.156875    0.656875     0.004307
NI4672   NI        0.406875    0.125625    0.656875     0.004307
NI4673   NI        0.406875    0.156875    0.625625     0.004307
NI4674   NI        0.438125    0.125625    0.625625     0.004307
NI4675   NI        0.438125    0.156875    0.656875     0.004307
NI4676   NI        0.469375    0.125625    0.656875     0.004307
NI4677   NI        0.469375    0.156875    0.625625     0.004307
NI4678   NI        0.500625    0.125625    0.625625     0.004307
NI4679   NI        0.500625    0.156875    0.656875     0.004307
NI4680   NI        0.531875    0.125625    0.656875     0.004307
NI4681   NI        0.531875    0.156875    0.625625     0.004307
NI4682   NI        0.563125    0.125625    0.625625     0.004307
NI4683   NI        0.563125    0.156875    0.656875     0.004307
NI4684   NI        0.594375    0.125625    0.656875     0.004307
NI4685   NI        0.594375    0.156875    0.625625     0.004307
NI4686   NI        0.625625    0.125625    0.625625     0.004307
NI4687   NI        0.625625    0.156875    0.656875     0.004307
NI4688   NI        0.656875    0.125625    0.656875     0.004307
NI4689   NI        0.656875    0.156875    0.625625     0.004307
NI4690   NI        0.688125    0.125625    0.625625     0.004307
NI4691   NI        0.688125    0.156875    0.656875     0.004307
NI4692   NI        0.719375    0.156875    0.625625     0.004307
NI4693   NI        0.125625    0.188125    0.625625     0.004307
NI4694   NI        0.125625    0.219375    0.656875     0.004307
NI4695   NI        0.156875    0.188125    0.656875     0.004307
NI4696   NI        0.156875    0.219375    0.625625     0.004307
NI4697   NI        0.188125    0.188125    0.625625     0.004307
NI4698   NI        0.188125    0.219375    0.656875     0.004307
NI4699   NI        0.219375    0.188125    0.656875     0.004307
NI4700   NI        0.219375    0.219375    0.625625     0.004307
NI4701   NI        0.250625    0.188125    0.625625     0.004307
NI4702   NI        0.250625    0.219375    0.656875     0.004307
NI4703   NI        0.281875    0.188125    0.656875     0.004307
NI4704   NI        0.281875    0.219375    0.625625     0.004307
NI4705   NI        0.313125    0.188125    0.625625     0.004307
NI4706   NI        0.313125    0.219375    0.656875     0.004307
NI4707   NI        0.344375    0.188125    0.656875     0.004307
NI4708   NI        0.344375    0.219375    0.625625     0.004307
NI4709   NI        0.375625    0.188125    0.625625     0.004307
NI4710   NI        0.375625    0.219375    0.656875     0.004307
NI4711   NI        0.406875    0.188125    0.656875     0.004307
NI4712   NI        0.406875    0.219375    0.625625     0.004307
NI4713   NI        0.438125    0.188125    0.625625     0.004307
NI4714   NI        0.438125    0.219375    0.656875     0.004307
NI4715   NI        0.469375    0.188125    0.656875     0.004307
NI4716   NI        0.469375    0.219375    0.625625     0.004307
NI4717   NI        0.500625    0.188125    0.625625     0.004307
NI4718   NI        0.500625    0.219375    0.656875     0.004307
NI4719   NI        0.531875    0.188125    0.656875     0.004307
NI4720   NI        0.531875    0.219375    0.625625     0.004307
NI4721   NI        0.563125    0.188125    0.625625     0.004307
NI4722   NI        0.563125    0.219375    0.656875     0.004307
NI4723   NI        0.594375    0.188125    0.656875     0.004307
NI4724   NI        0.594375    0.219375    0.625625     0.004307
NI4725   NI        0.625625    0.188125    0.625625     0.004307
NI4726   NI        0.625625    0.219375    0.656875     0.004307
NI4727   NI        0.656875    0.188125    0.656875     0.004307
NI4728   NI        0.656875    0.219375    0.625625     0.004307
NI4729   NI        0.688125    0.188125    0.625625     0.004307
NI4730   NI        0.688125    0.219375    0.656875     0.004307
NI4731   NI        0.719375    0.188125    0.656875     0.004307
NI4732   NI        0.719375    0.219375    0.625625     0.004307
NI4733   NI        0.750625    0.188125    0.625625     0.004307
NI4734   NI        0.750625    0.219375    0.656875     0.004307
NI4735   NI        0.094375    0.281875    0.625625     0.004307
NI4736   NI        0.125625    0.250625    0.625625     0.004307
NI4737   NI        0.125625    0.281875    0.656875     0.004307
NI4738   NI        0.156875    0.250625    0.656875     0.004307
NI4739   NI        0.156875    0.281875    0.625625     0.004307
NI4740   NI        0.188125    0.250625    0.625625     0.004307
NI4741   NI        0.188125    0.281875    0.656875     0.004307
NI4742   NI        0.219375    0.250625    0.656875     0.004307
NI4743   NI        0.219375    0.281875    0.625625     0.004307
NI4744   NI        0.250625    0.250625    0.625625     0.004307
NI4745   NI        0.250625    0.281875    0.656875     0.004307
NI4746   NI        0.281875    0.250625    0.656875     0.004307
NI4747   NI        0.281875    0.281875    0.625625     0.004307
NI4748   NI        0.313125    0.250625    0.625625     0.004307
NI4749   NI        0.313125    0.281875    0.656875     0.004307
NI4750   NI        0.344375    0.250625    0.656875     0.004307
NI4751   NI        0.344375    0.281875    0.625625     0.004307
NI4752   NI        0.375625    0.250625    0.625625     0.004307
NI4753   NI        0.375625    0.281875    0.656875     0.004307
NI4754   NI        0.406875    0.250625    0.656875     0.004307
NI4755   NI        0.406875    0.281875    0.625625     0.004307
NI4756   NI        0.438125    0.250625    0.625625     0.004307
NI4757   NI        0.438125    0.281875    0.656875     0.004307
NI4758   NI        0.469375    0.250625    0.656875     0.004307
NI4759   NI        0.469375    0.281875    0.625625     0.004307
NI4760   NI        0.500625    0.250625    0.625625     0.004307
NI4761   NI        0.500625    0.281875    0.656875     0.004307
NI4762   NI        0.531875    0.250625    0.656875     0.004307
NI4763   NI        0.531875    0.281875    0.625625     0.004307
NI4764   NI        0.563125    0.250625    0.625625     0.004307
NI4765   NI        0.563125    0.281875    0.656875     0.004307
NI4766   NI        0.594375    0.250625    0.656875     0.004307
NI4767   NI        0.594375    0.281875    0.625625     0.004307
NI4768   NI        0.625625    0.250625    0.625625     0.004307
NI4769   NI        0.625625    0.281875    0.656875     0.004307
NI4770   NI        0.656875    0.250625    0.656875     0.004307
NI4771   NI        0.656875    0.281875    0.625625     0.004307
NI4772   NI        0.688125    0.250625    0.625625     0.004307
NI4773   NI        0.688125    0.281875    0.656875     0.004307
NI4774   NI        0.719375    0.250625    0.656875     0.004307
NI4775   NI        0.719375    0.281875    0.625625     0.004307
NI4776   NI        0.750625    0.250625    0.625625     0.004307
NI4777   NI        0.750625    0.281875    0.656875     0.004307
NI4778   NI        0.781875    0.281875    0.625625     0.004307
NI4779   NI        0.063125    0.313125    0.625625     0.004307
NI4780   NI        0.094375    0.313125    0.656875     0.004307
NI4781   NI        0.094375    0.344375    0.625625     0.004307
NI4782   NI        0.125625    0.313125    0.625625     0.004307
NI4783   NI        0.125625    0.344375    0.656875     0.004307
NI4784   NI        0.156875    0.313125    0.656875     0.004307
NI4785   NI        0.156875    0.344375    0.625625     0.004307
NI4786   NI        0.188125    0.313125    0.625625     0.004307
NI4787   NI        0.188125    0.344375    0.656875     0.004307
NI4788   NI        0.219375    0.313125    0.656875     0.004307
NI4789   NI        0.219375    0.344375    0.625625     0.004307
NI4790   NI        0.250625    0.313125    0.625625     0.004307
NI4791   NI        0.250625    0.344375    0.656875     0.004307
NI4792   NI        0.281875    0.313125    0.656875     0.004307
NI4793   NI        0.281875    0.344375    0.625625     0.004307
NI4794   NI        0.313125    0.313125    0.625625     0.004307
NI4795   NI        0.313125    0.344375    0.656875     0.004307
NI4796   NI        0.344375    0.313125    0.656875     0.004307
NI4797   NI        0.344375    0.344375    0.625625     0.004307
NI4798   NI        0.375625    0.313125    0.625625     0.004307
NI4799   NI        0.375625    0.344375    0.656875     0.004307
NI4800   NI        0.406875    0.313125    0.656875     0.004307
NI4801   NI        0.406875    0.344375    0.625625     0.004307
NI4802   NI        0.438125    0.313125    0.625625     0.004307
NI4803   NI        0.438125    0.344375    0.656875     0.004307
NI4804   NI        0.469375    0.313125    0.656875     0.004307
NI4805   NI        0.469375    0.344375    0.625625     0.004307
NI4806   NI        0.500625    0.313125    0.625625     0.004307
NI4807   NI        0.500625    0.344375    0.656875     0.004307
NI4808   NI        0.531875    0.313125    0.656875     0.004307
NI4809   NI        0.531875    0.344375    0.625625     0.004307
NI4810   NI        0.563125    0.313125    0.625625     0.004307
NI4811   NI        0.563125    0.344375    0.656875     0.004307
NI4812   NI        0.594375    0.313125    0.656875     0.004307
NI4813   NI        0.594375    0.344375    0.625625     0.004307
NI4814   NI        0.625625    0.313125    0.625625     0.004307
NI4815   NI        0.625625    0.344375    0.656875     0.004307
NI4816   NI        0.656875    0.313125    0.656875     0.004307
NI4817   NI        0.656875    0.344375    0.625625     0.004307
NI4818   NI        0.688125    0.313125    0.625625     0.004307
NI4819   NI        0.688125    0.344375    0.656875     0.004307
NI4820   NI        0.719375    0.313125    0.656875     0.004307
NI4821   NI        0.719375    0.344375    0.625625     0.004307
NI4822   NI        0.750625    0.313125    0.625625     0.004307
NI4823   NI        0.750625    0.344375    0.656875     0.004307
NI4824   NI        0.781875    0.313125    0.656875     0.004307
NI4825   NI        0.781875    0.344375    0.625625     0.004307
NI4826   NI        0.813125    0.313125    0.625625     0.004307
NI4827   NI        0.063125    0.375625    0.625625     0.004307
NI4828   NI        0.063125    0.406875    0.656875     0.004307
NI4829   NI        0.094375    0.375625    0.656875     0.004307
NI4830   NI        0.094375    0.406875    0.625625     0.004307
NI4831   NI        0.125625    0.375625    0.625625     0.004307
NI4832   NI        0.125625    0.406875    0.656875     0.004307
NI4833   NI        0.156875    0.375625    0.656875     0.004307
NI4834   NI        0.156875    0.406875    0.625625     0.004307
NI4835   NI        0.188125    0.375625    0.625625     0.004307
NI4836   NI        0.188125    0.406875    0.656875     0.004307
NI4837   NI        0.219375    0.375625    0.656875     0.004307
NI4838   NI        0.219375    0.406875    0.625625     0.004307
NI4839   NI        0.250625    0.375625    0.625625     0.004307
NI4840   NI        0.250625    0.406875    0.656875     0.004307
NI4841   NI        0.281875    0.375625    0.656875     0.004307
NI4842   NI        0.281875    0.406875    0.625625     0.004307
NI4843   NI        0.313125    0.375625    0.625625     0.004307
NI4844   NI        0.313125    0.406875    0.656875     0.004307
NI4845   NI        0.344375    0.375625    0.656875     0.004307
NI4846   NI        0.344375    0.406875    0.625625     0.004307
NI4847   NI        0.375625    0.375625    0.625625     0.004307
NI4848   NI        0.375625    0.406875    0.656875     0.004307
NI4849   NI        0.406875    0.375625    0.656875     0.004307
NI4850   NI        0.406875    0.406875    0.625625     0.004307
NI4851   NI        0.438125    0.375625    0.625625     0.004307
NI4852   NI        0.438125    0.406875    0.656875     0.004307
NI4853   NI        0.469375    0.375625    0.656875     0.004307
NI4854   NI        0.469375    0.406875    0.625625     0.004307
NI4855   NI        0.500625    0.375625    0.625625     0.004307
NI4856   NI        0.500625    0.406875    0.656875     0.004307
NI4857   NI        0.531875    0.375625    0.656875     0.004307
NI4858   NI        0.531875    0.406875    0.625625     0.004307
NI4859   NI        0.563125    0.375625    0.625625     0.004307
NI4860   NI        0.563125    0.406875    0.656875     0.004307
NI4861   NI        0.594375    0.375625    0.656875     0.004307
NI4862   NI        0.594375    0.406875    0.625625     0.004307
NI4863   NI        0.625625    0.375625    0.625625     0.004307
NI4864   NI        0.625625    0.406875    0.656875     0.004307
NI4865   NI        0.656875    0.375625    0.656875     0.004307
NI4866   NI        0.656875    0.406875    0.625625     0.004307
NI4867   NI        0.688125    0.375625    0.625625     0.004307
NI4868   NI        0.688125    0.406875    0.656875     0.004307
NI4869   NI        0.719375    0.375625    0.656875     0.004307
NI4870   NI        0.719375    0.406875    0.625625     0.004307
NI4871   NI        0.750625    0.375625    0.625625     0.004307
NI4872   NI        0.750625    0.406875    0.656875     0.004307
NI4873   NI        0.781875    0.375625    0.656875     0.004307
NI4874   NI        0.781875    0.406875    0.625625     0.004307
NI4875   NI        0.813125    0.375625    0.625625     0.004307
NI4876   NI        0.813125    0.406875    0.656875     0.004307
NI4877   NI        0.063125    0.438125    0.625625     0.004307
NI4878   NI        0.063125    0.469375    0.656875     0.004307
NI4879   NI        0.094375    0.438125    0.656875     0.004307
NI4880   NI        0.094375    0.469375    0.625625     0.004307
NI4881   NI        0.125625    0.438125    0.625625     0.004307
NI4882   NI        0.125625    0.469375    0.656875     0.004307
NI4883   NI        0.156875    0.438125    0.656875     0.004307
NI4884   NI        0.156875    0.469375    0.625625     0.004307
NI4885   NI        0.188125    0.438125    0.625625     0.004307
NI4886   NI        0.188125    0.469375    0.656875     0.004307
NI4887   NI        0.219375    0.438125    0.656875     0.004307
NI4888   NI        0.219375    0.469375    0.625625     0.004307
NI4889   NI        0.250625    0.438125    0.625625     0.004307
NI4890   NI        0.250625    0.469375    0.656875     0.004307
NI4891   NI        0.281875    0.438125    0.656875     0.004307
NI4892   NI        0.281875    0.469375    0.625625     0.004307
NI4893   NI        0.313125    0.438125    0.625625     0.004307
NI4894   NI        0.313125    0.469375    0.656875     0.004307
NI4895   NI        0.344375    0.438125    0.656875     0.004307
NI4896   NI        0.344375    0.469375    0.625625     0.004307
NI4897   NI        0.375625    0.438125    0.625625     0.004307
NI4898   NI        0.375625    0.469375    0.656875     0.004307
NI4899   NI        0.406875    0.438125    0.656875     0.004307
NI4900   NI        0.406875    0.469375    0.625625     0.004307
NI4901   NI        0.438125    0.438125    0.625625     0.004307
NI4902   NI        0.438125    0.469375    0.656875     0.004307
NI4903   NI        0.469375    0.438125    0.656875     0.004307
NI4904   NI        0.469375    0.469375    0.625625     0.004307
NI4905   NI        0.500625    0.438125    0.625625     0.004307
NI4906   NI        0.500625    0.469375    0.656875     0.004307
NI4907   NI        0.531875    0.438125    0.656875     0.004307
NI4908   NI        0.531875    0.469375    0.625625     0.004307
NI4909   NI        0.563125    0.438125    0.625625     0.004307
NI4910   NI        0.563125    0.469375    0.656875     0.004307
NI4911   NI        0.594375    0.438125    0.656875     0.004307
NI4912   NI        0.594375    0.469375    0.625625     0.004307
NI4913   NI        0.625625    0.438125    0.625625     0.004307
NI4914   NI        0.625625    0.469375    0.656875     0.004307
NI4915   NI        0.656875    0.438125    0.656875     0.004307
NI4916   NI        0.656875    0.469375    0.625625     0.004307
NI4917   NI        0.688125    0.438125    0.625625     0.004307
NI4918   NI        0.688125    0.469375    0.656875     0.004307
NI4919   NI        0.719375    0.438125    0.656875     0.004307
NI4920   NI        0.719375    0.469375    0.625625     0.004307
NI4921   NI        0.750625    0.438125    0.625625     0.004307
NI4922   NI        0.750625    0.469375    0.656875     0.004307
NI4923   NI        0.781875    0.438125    0.656875     0.004307
NI4924   NI        0.781875    0.469375    0.625625     0.004307
NI4925   NI        0.813125    0.438125    0.625625     0.004307
NI4926   NI        0.813125    0.469375    0.656875     0.004307
NI4927   NI        0.063125    0.500625    0.625625     0.004307
NI4928   NI        0.094375    0.500625    0.656875     0.004307
NI4929   NI        0.094375    0.531875    0.625625     0.004307
NI4930   NI        0.125625    0.500625    0.625625     0.004307
NI4931   NI        0.125625    0.531875    0.656875     0.004307
NI4932   NI        0.156875    0.500625    0.656875     0.004307
NI4933   NI        0.156875    0.531875    0.625625     0.004307
NI4934   NI        0.188125    0.500625    0.625625     0.004307
NI4935   NI        0.188125    0.531875    0.656875     0.004307
NI4936   NI        0.219375    0.500625    0.656875     0.004307
NI4937   NI        0.219375    0.531875    0.625625     0.004307
NI4938   NI        0.250625    0.500625    0.625625     0.004307
NI4939   NI        0.250625    0.531875    0.656875     0.004307
NI4940   NI        0.281875    0.500625    0.656875     0.004307
NI4941   NI        0.281875    0.531875    0.625625     0.004307
NI4942   NI        0.313125    0.500625    0.625625     0.004307
NI4943   NI        0.313125    0.531875    0.656875     0.004307
NI4944   NI        0.344375    0.500625    0.656875     0.004307
NI4945   NI        0.344375    0.531875    0.625625     0.004307
NI4946   NI        0.375625    0.500625    0.625625     0.004307
NI4947   NI        0.375625    0.531875    0.656875     0.004307
NI4948   NI        0.406875    0.500625    0.656875     0.004307
NI4949   NI        0.406875    0.531875    0.625625     0.004307
NI4950   NI        0.438125    0.500625    0.625625     0.004307
NI4951   NI        0.438125    0.531875    0.656875     0.004307
NI4952   NI        0.469375    0.500625    0.656875     0.004307
NI4953   NI        0.469375    0.531875    0.625625     0.004307
NI4954   NI        0.500625    0.500625    0.625625     0.004307
NI4955   NI        0.500625    0.531875    0.656875     0.004307
NI4956   NI        0.531875    0.500625    0.656875     0.004307
NI4957   NI        0.531875    0.531875    0.625625     0.004307
NI4958   NI        0.563125    0.500625    0.625625     0.004307
NI4959   NI        0.563125    0.531875    0.656875     0.004307
NI4960   NI        0.594375    0.500625    0.656875     0.004307
NI4961   NI        0.594375    0.531875    0.625625     0.004307
NI4962   NI        0.625625    0.500625    0.625625     0.004307
NI4963   NI        0.625625    0.531875    0.656875     0.004307
NI4964   NI        0.656875    0.500625    0.656875     0.004307
NI4965   NI        0.656875    0.531875    0.625625     0.004307
NI4966   NI        0.688125    0.500625    0.625625     0.004307
NI4967   NI        0.688125    0.531875    0.656875     0.004307
NI4968   NI        0.719375    0.500625    0.656875     0.004307
NI4969   NI        0.719375    0.531875    0.625625     0.004307
NI4970   NI        0.750625    0.500625    0.625625     0.004307
NI4971   NI        0.750625    0.531875    0.656875     0.004307
NI4972   NI        0.781875    0.500625    0.656875     0.004307
NI4973   NI        0.781875    0.531875    0.625625     0.004307
NI4974   NI        0.813125    0.500625    0.625625     0.004307
NI4975   NI        0.063125    0.563125    0.625625     0.004307
NI4976   NI        0.094375    0.563125    0.656875     0.004307
NI4977   NI        0.094375    0.594375    0.625625     0.004307
NI4978   NI        0.125625    0.563125    0.625625     0.004307
NI4979   NI        0.125625    0.594375    0.656875     0.004307
NI4980   NI        0.156875    0.563125    0.656875     0.004307
NI4981   NI        0.156875    0.594375    0.625625     0.004307
NI4982   NI        0.188125    0.563125    0.625625     0.004307
NI4983   NI        0.188125    0.594375    0.656875     0.004307
NI4984   NI        0.219375    0.563125    0.656875     0.004307
NI4985   NI        0.219375    0.594375    0.625625     0.004307
NI4986   NI        0.250625    0.563125    0.625625     0.004307
NI4987   NI        0.250625    0.594375    0.656875     0.004307
NI4988   NI        0.281875    0.563125    0.656875     0.004307
NI4989   NI        0.281875    0.594375    0.625625     0.004307
NI4990   NI        0.313125    0.563125    0.625625     0.004307
NI4991   NI        0.313125    0.594375    0.656875     0.004307
NI4992   NI        0.344375    0.563125    0.656875     0.004307
NI4993   NI        0.344375    0.594375    0.625625     0.004307
NI4994   NI        0.375625    0.563125    0.625625     0.004307
NI4995   NI        0.375625    0.594375    0.656875     0.004307
NI4996   NI        0.406875    0.563125    0.656875     0.004307
NI4997   NI        0.406875    0.594375    0.625625     0.004307
NI4998   NI        0.438125    0.563125    0.625625     0.004307
NI4999   NI        0.438125    0.594375    0.656875     0.004307
NI5000   NI        0.469375    0.563125    0.656875     0.004307
NI5001   NI        0.469375    0.594375    0.625625     0.004307
NI5002   NI        0.500625    0.563125    0.625625     0.004307
NI5003   NI        0.500625    0.594375    0.656875     0.004307
NI5004   NI        0.531875    0.563125    0.656875     0.004307
NI5005   NI        0.531875    0.594375    0.625625     0.004307
NI5006   NI        0.563125    0.563125    0.625625     0.004307
NI5007   NI        0.563125    0.594375    0.656875     0.004307
NI5008   NI        0.594375    0.563125    0.656875     0.004307
NI5009   NI        0.594375    0.594375    0.625625     0.004307
NI5010   NI        0.625625    0.563125    0.625625     0.004307
NI5011   NI        0.625625    0.594375    0.656875     0.004307
NI5012   NI        0.656875    0.563125    0.656875     0.004307
NI5013   NI        0.656875    0.594375    0.625625     0.004307
NI5014   NI        0.688125    0.563125    0.625625     0.004307
NI5015   NI        0.688125    0.594375    0.656875     0.004307
NI5016   NI        0.719375    0.563125    0.656875     0.004307
NI5017   NI        0.719375    0.594375    0.625625     0.004307
NI5018   NI        0.750625    0.563125    0.625625     0.004307
NI5019   NI        0.750625    0.594375    0.656875     0.004307
NI5020   NI        0.781875    0.563125    0.656875     0.004307
NI5021   NI        0.781875    0.594375    0.625625     0.004307
NI5022   NI        0.813125    0.563125    0.625625     0.004307
NI5023   NI        0.125625    0.625625    0.625625     0.004307
NI5024   NI        0.125625    0.656875    0.656875     0.004307
NI5025   NI        0.156875    0.625625    0.656875     0.004307
NI5026   NI        0.156875    0.656875    0.625625     0.004307
NI5027   NI        0.188125    0.625625    0.625625     0.004307
NI5028   NI        0.188125    0.656875    0.656875     0.004307
NI5029   NI        0.219375    0.625625    0.656875     0.004307
NI5030   NI        0.219375    0.656875    0.625625     0.004307
NI5031   NI        0.250625    0.625625    0.625625     0.004307
NI5032   NI        0.250625    0.656875    0.656875     0.004307
NI5033   NI        0.281875    0.625625    0.656875     0.004307
NI5034   NI        0.281875    0.656875    0.625625     0.004307
NI5035   NI        0.313125    0.625625    0.625625     0.004307
NI5036   NI        0.313125    0.656875    0.656875     0.004307
NI5037   NI        0.344375    0.625625    0.656875     0.004307
NI5038   NI        0.344375    0.656875    0.625625     0.004307
NI5039   NI        0.375625    0.625625    0.625625     0.004307
NI5040   NI        0.375625    0.656875    0.656875     0.004307
NI5041   NI        0.406875    0.625625    0.656875     0.004307
NI5042   NI        0.406875    0.656875    0.625625     0.004307
NI5043   NI        0.438125    0.625625    0.625625     0.004307
NI5044   NI        0.438125    0.656875    0.656875     0.004307
NI5045   NI        0.469375    0.625625    0.656875     0.004307
NI5046   NI        0.469375    0.656875    0.625625     0.004307
NI5047   NI        0.500625    0.625625    0.625625     0.004307
NI5048   NI        0.500625    0.656875    0.656875     0.004307
NI5049   NI        0.531875    0.625625    0.656875     0.004307
NI5050   NI        0.531875    0.656875    0.625625     0.004307
NI5051   NI        0.563125    0.625625    0.625625     0.004307
NI5052   NI        0.563125    0.656875    0.656875     0.004307
NI5053   NI        0.594375    0.625625    0.656875     0.004307
NI5054   NI        0.594375    0.656875    0.625625     0.004307
NI5055   NI        0.625625    0.625625    0.625625     0.004307
NI5056   NI        0.625625    0.656875    0.656875     0.004307
NI5057   NI        0.656875    0.625625    0.656875     0.004307
NI5058   NI        0.656875    0.656875    0.625625     0.004307
NI5059   NI        0.688125    0.625625    0.625625     0.004307
NI5060   NI        0.688125    0.656875    0.656875     0.004307
NI5061   NI        0.719375    0.625625    0.656875     0.004307
NI5062   NI        0.719375    0.656875    0.625625     0.004307
NI5063   NI        0.750625    0.625625    0.625625     0.004307
NI5064   NI        0.750625    0.656875    0.656875     0.004307
NI5065   NI        0.125625    0.688125    0.625625     0.004307
NI5066   NI        0.156875    0.688125    0.656875     0.004307
NI5067   NI        0.156875    0.719375    0.625625     0.004307
NI5068   NI        0.188125    0.688125    0.625625     0.004307
NI5069   NI        0.188125    0.719375    0.656875     0.004307
NI5070   NI        0.219375    0.688125    0.656875     0.004307
NI5071   NI        0.219375    0.719375    0.625625     0.004307
NI5072   NI        0.250625    0.688125    0.625625     0.004307
NI5073   NI        0.250625    0.719375    0.656875     0.004307
NI5074   NI        0.281875    0.688125    0.656875     0.004307
NI5075   NI        0.281875    0.719375    0.625625     0.004307
NI5076   NI        0.313125    0.688125    0.625625     0.004307
NI5077   NI        0.313125    0.719375    0.656875     0.004307
NI5078   NI        0.344375    0.688125    0.656875     0.004307
NI5079   NI        0.344375    0.719375    0.625625     0.004307
NI5080   NI        0.375625    0.688125    0.625625     0.004307
NI5081   NI        0.375625    0.719375    0.656875     0.004307
NI5082   NI        0.406875    0.688125    0.656875     0.004307
NI5083   NI        0.406875    0.719375    0.625625     0.004307
NI5084   NI        0.438125    0.688125    0.625625     0.004307
NI5085   NI        0.438125    0.719375    0.656875     0.004307
NI5086   NI        0.469375    0.688125    0.656875     0.004307
NI5087   NI        0.469375    0.719375    0.625625     0.004307
NI5088   NI        0.500625    0.688125    0.625625     0.004307
NI5089   NI        0.500625    0.719375    0.656875     0.004307
NI5090   NI        0.531875    0.688125    0.656875     0.004307
NI5091   NI        0.531875    0.719375    0.625625     0.004307
NI5092   NI        0.563125    0.688125    0.625625     0.004307
NI5093   NI        0.563125    0.719375    0.656875     0.004307
NI5094   NI        0.594375    0.688125    0.656875     0.004307
NI5095   NI        0.594375    0.719375    0.625625     0.004307
NI5096   NI        0.625625    0.688125    0.625625     0.004307
NI5097   NI        0.625625    0.719375    0.656875     0.004307
NI5098   NI        0.656875    0.688125    0.656875     0.004307
NI5099   NI        0.656875    0.719375    0.625625     0.004307
NI5100   NI        0.688125    0.688125    0.625625     0.004307
NI5101   NI        0.688125    0.719375    0.656875     0.004307
NI5102   NI        0.719375    0.688125    0.656875     0.004307
NI5103   NI        0.719375    0.719375    0.625625     0.004307
NI5104   NI        0.750625    0.688125    0.625625     0.004307
NI5105   NI        0.188125    0.750625    0.625625     0.004307
NI5106   NI        0.219375    0.750625    0.656875     0.004307
NI5107   NI        0.250625    0.750625    0.625625     0.004307
NI5108   NI        0.281875    0.750625    0.656875     0.004307
NI5109   NI        0.281875    0.781875    0.625625     0.004307
NI5110   NI        0.313125    0.750625    0.625625     0.004307
NI5111   NI        0.313125    0.781875    0.656875     0.004307
NI5112   NI        0.344375    0.750625    0.656875     0.004307
NI5113   NI        0.344375    0.781875    0.625625     0.004307
NI5114   NI        0.375625    0.750625    0.625625     0.004307
NI5115   NI        0.375625    0.781875    0.656875     0.004307
NI5116   NI        0.406875    0.750625    0.656875     0.004307
NI5117   NI        0.406875    0.781875    0.625625     0.004307
NI5118   NI        0.438125    0.750625    0.625625     0.004307
NI5119   NI        0.438125    0.781875    0.656875     0.004307
NI5120   NI        0.469375    0.750625    0.656875     0.004307
NI5121   NI        0.469375    0.781875    0.625625     0.004307
NI5122   NI        0.500625    0.750625    0.625625     0.004307
NI5123   NI        0.500625    0.781875    0.656875     0.004307
NI5124   NI        0.531875    0.750625    0.656875     0.004307
NI5125   NI        0.531875    0.781875    0.625625     0.004307
NI5126   NI        0.563125    0.750625    0.625625     0.004307
NI5127   NI        0.563125    0.781875    0.656875     0.004307
NI5128   NI        0.594375    0.750625    0.656875     0.004307
NI5129   NI        0.594375    0.781875    0.625625     0.004307
NI5130   NI        0.625625    0.750625    0.625625     0.004307
NI5131   NI        0.656875    0.750625    0.656875     0.004307
NI5132   NI        0.688125    0.750625    0.625625     0.004307
NI5133   NI        0.313125    0.813125    0.625625     0.004307
NI5134   NI        0.375625    0.813125    0.625625     0.004307
NI5135   NI        0.406875    0.813125    0.656875     0.004307
NI5136   NI        0.438125    0.813125    0.625625     0.004307
NI5137   NI        0.469375    0.813125    0.656875     0.004307
NI5138   NI        0.500625    0.813125    0.625625     0.004307
NI5139   NI        0.563125    0.813125    0.625625     0.004307
NI5140   NI        0.344375    0.094375    0.688125     0.004307
NI5141   NI        0.406875    0.094375    0.688125     0.004307
NI5142   NI        0.469375    0.094375    0.688125     0.004307
NI5143   NI        0.531875    0.094375    0.688125     0.004307
NI5144   NI        0.219375    0.156875    0.688125     0.004307
NI5145   NI        0.250625    0.125625    0.688125     0.004307
NI5146   NI        0.250625    0.156875    0.719375     0.004307
NI5147   NI        0.281875    0.156875    0.688125     0.004307
NI5148   NI        0.313125    0.125625    0.688125     0.004307
NI5149   NI        0.313125    0.156875    0.719375     0.004307
NI5150   NI        0.344375    0.125625    0.719375     0.004307
NI5151   NI        0.344375    0.156875    0.688125     0.004307
NI5152   NI        0.375625    0.125625    0.688125     0.004307
NI5153   NI        0.375625    0.156875    0.719375     0.004307
NI5154   NI        0.406875    0.125625    0.719375     0.004307
NI5155   NI        0.406875    0.156875    0.688125     0.004307
NI5156   NI        0.438125    0.125625    0.688125     0.004307
NI5157   NI        0.438125    0.156875    0.719375     0.004307
NI5158   NI        0.469375    0.125625    0.719375     0.004307
NI5159   NI        0.469375    0.156875    0.688125     0.004307
NI5160   NI        0.500625    0.125625    0.688125     0.004307
NI5161   NI        0.500625    0.156875    0.719375     0.004307
NI5162   NI        0.531875    0.125625    0.719375     0.004307
NI5163   NI        0.531875    0.156875    0.688125     0.004307
NI5164   NI        0.563125    0.125625    0.688125     0.004307
NI5165   NI        0.563125    0.156875    0.719375     0.004307
NI5166   NI        0.594375    0.156875    0.688125     0.004307
NI5167   NI        0.625625    0.125625    0.688125     0.004307
NI5168   NI        0.625625    0.156875    0.719375     0.004307
NI5169   NI        0.656875    0.156875    0.688125     0.004307
NI5170   NI        0.156875    0.219375    0.688125     0.004307
NI5171   NI        0.188125    0.188125    0.688125     0.004307
NI5172   NI        0.188125    0.219375    0.719375     0.004307
NI5173   NI        0.219375    0.188125    0.719375     0.004307
NI5174   NI        0.219375    0.219375    0.688125     0.004307
NI5175   NI        0.250625    0.188125    0.688125     0.004307
NI5176   NI        0.250625    0.219375    0.719375     0.004307
NI5177   NI        0.281875    0.188125    0.719375     0.004307
NI5178   NI        0.281875    0.219375    0.688125     0.004307
NI5179   NI        0.313125    0.188125    0.688125     0.004307
NI5180   NI        0.313125    0.219375    0.719375     0.004307
NI5181   NI        0.344375    0.188125    0.719375     0.004307
NI5182   NI        0.344375    0.219375    0.688125     0.004307
NI5183   NI        0.375625    0.188125    0.688125     0.004307
NI5184   NI        0.375625    0.219375    0.719375     0.004307
NI5185   NI        0.406875    0.188125    0.719375     0.004307
NI5186   NI        0.406875    0.219375    0.688125     0.004307
NI5187   NI        0.438125    0.188125    0.688125     0.004307
NI5188   NI        0.438125    0.219375    0.719375     0.004307
NI5189   NI        0.469375    0.188125    0.719375     0.004307
NI5190   NI        0.469375    0.219375    0.688125     0.004307
NI5191   NI        0.500625    0.188125    0.688125     0.004307
NI5192   NI        0.500625    0.219375    0.719375     0.004307
NI5193   NI        0.531875    0.188125    0.719375     0.004307
NI5194   NI        0.531875    0.219375    0.688125     0.004307
NI5195   NI        0.563125    0.188125    0.688125     0.004307
NI5196   NI        0.563125    0.219375    0.719375     0.004307
NI5197   NI        0.594375    0.188125    0.719375     0.004307
NI5198   NI        0.594375    0.219375    0.688125     0.004307
NI5199   NI        0.625625    0.188125    0.688125     0.004307
NI5200   NI        0.625625    0.219375    0.719375     0.004307
NI5201   NI        0.656875    0.188125    0.719375     0.004307
NI5202   NI        0.656875    0.219375    0.688125     0.004307
NI5203   NI        0.688125    0.188125    0.688125     0.004307
NI5204   NI        0.688125    0.219375    0.719375     0.004307
NI5205   NI        0.719375    0.219375    0.688125     0.004307
NI5206   NI        0.125625    0.250625    0.688125     0.004307
NI5207   NI        0.156875    0.250625    0.719375     0.004307
NI5208   NI        0.156875    0.281875    0.688125     0.004307
NI5209   NI        0.188125    0.250625    0.688125     0.004307
NI5210   NI        0.188125    0.281875    0.719375     0.004307
NI5211   NI        0.219375    0.250625    0.719375     0.004307
NI5212   NI        0.219375    0.281875    0.688125     0.004307
NI5213   NI        0.250625    0.250625    0.688125     0.004307
NI5214   NI        0.250625    0.281875    0.719375     0.004307
NI5215   NI        0.281875    0.250625    0.719375     0.004307
NI5216   NI        0.281875    0.281875    0.688125     0.004307
NI5217   NI        0.313125    0.250625    0.688125     0.004307
NI5218   NI        0.313125    0.281875    0.719375     0.004307
NI5219   NI        0.344375    0.250625    0.719375     0.004307
NI5220   NI        0.344375    0.281875    0.688125     0.004307
NI5221   NI        0.375625    0.250625    0.688125     0.004307
NI5222   NI        0.375625    0.281875    0.719375     0.004307
NI5223   NI        0.406875    0.250625    0.719375     0.004307
NI5224   NI        0.406875    0.281875    0.688125     0.004307
NI5225   NI        0.438125    0.250625    0.688125     0.004307
NI5226   NI        0.438125    0.281875    0.719375     0.004307
NI5227   NI        0.469375    0.250625    0.719375     0.004307
NI5228   NI        0.469375    0.281875    0.688125     0.004307
NI5229   NI        0.500625    0.250625    0.688125     0.004307
NI5230   NI        0.500625    0.281875    0.719375     0.004307
NI5231   NI        0.531875    0.250625    0.719375     0.004307
NI5232   NI        0.531875    0.281875    0.688125     0.004307
NI5233   NI        0.563125    0.250625    0.688125     0.004307
NI5234   NI        0.563125    0.281875    0.719375     0.004307
NI5235   NI        0.594375    0.250625    0.719375     0.004307
NI5236   NI        0.594375    0.281875    0.688125     0.004307
NI5237   NI        0.625625    0.250625    0.688125     0.004307
NI5238   NI        0.625625    0.281875    0.719375     0.004307
NI5239   NI        0.656875    0.250625    0.719375     0.004307
NI5240   NI        0.656875    0.281875    0.688125     0.004307
NI5241   NI        0.688125    0.250625    0.688125     0.004307
NI5242   NI        0.688125    0.281875    0.719375     0.004307
NI5243   NI        0.719375    0.250625    0.719375     0.004307
NI5244   NI        0.719375    0.281875    0.688125     0.004307
NI5245   NI        0.750625    0.250625    0.688125     0.004307
NI5246   NI        0.094375    0.344375    0.688125     0.004307
NI5247   NI        0.125625    0.313125    0.688125     0.004307
NI5248   NI        0.125625    0.344375    0.719375     0.004307
NI5249   NI        0.156875    0.313125    0.719375     0.004307
NI5250   NI        0.156875    0.344375    0.688125     0.004307
NI5251   NI        0.188125    0.313125    0.688125     0.004307
NI5252   NI        0.188125    0.344375    0.719375     0.004307
NI5253   NI        0.219375    0.313125    0.719375     0.004307
NI5254   NI        0.219375    0.344375    0.688125     0.004307
NI5255   NI        0.250625    0.313125    0.688125     0.004307
NI5256   NI        0.250625    0.344375    0.719375     0.004307
NI5257   NI        0.281875    0.313125    0.719375     0.004307
NI5258   NI        0.281875    0.344375    0.688125     0.004307
NI5259   NI        0.313125    0.313125    0.688125     0.004307
NI5260   NI        0.313125    0.344375    0.719375     0.004307
NI5261   NI        0.344375    0.313125    0.719375     0.004307
NI5262   NI        0.344375    0.344375    0.688125     0.004307
NI5263   NI        0.375625    0.313125    0.688125     0.004307
NI5264   NI        0.375625    0.344375    0.719375     0.004307
NI5265   NI        0.406875    0.313125    0.719375     0.004307
NI5266   NI        0.406875    0.344375    0.688125     0.004307
NI5267   NI        0.438125    0.313125    0.688125     0.004307
NI5268   NI        0.438125    0.344375    0.719375     0.004307
NI5269   NI        0.469375    0.313125    0.719375     0.004307
NI5270   NI        0.469375    0.344375    0.688125     0.004307
NI5271   NI        0.500625    0.313125    0.688125     0.004307
NI5272   NI        0.500625    0.344375    0.719375     0.004307
NI5273   NI        0.531875    0.313125    0.719375     0.004307
NI5274   NI        0.531875    0.344375    0.688125     0.004307
NI5275   NI        0.563125    0.313125    0.688125     0.004307
NI5276   NI        0.563125    0.344375    0.719375     0.004307
NI5277   NI        0.594375    0.313125    0.719375     0.004307
NI5278   NI        0.594375    0.344375    0.688125     0.004307
NI5279   NI        0.625625    0.313125    0.688125     0.004307
NI5280   NI        0.625625    0.344375    0.719375     0.004307
NI5281   NI        0.656875    0.313125    0.719375     0.004307
NI5282   NI        0.656875    0.344375    0.688125     0.004307
NI5283   NI        0.688125    0.313125    0.688125     0.004307
NI5284   NI        0.688125    0.344375    0.719375     0.004307
NI5285   NI        0.719375    0.313125    0.719375     0.004307
NI5286   NI        0.719375    0.344375    0.688125     0.004307
NI5287   NI        0.750625    0.313125    0.688125     0.004307
NI5288   NI        0.750625    0.344375    0.719375     0.004307
NI5289   NI        0.781875    0.344375    0.688125     0.004307
NI5290   NI        0.094375    0.406875    0.688125     0.004307
NI5291   NI        0.125625    0.375625    0.688125     0.004307
NI5292   NI        0.125625    0.406875    0.719375     0.004307
NI5293   NI        0.156875    0.375625    0.719375     0.004307
NI5294   NI        0.156875    0.406875    0.688125     0.004307
NI5295   NI        0.188125    0.375625    0.688125     0.004307
NI5296   NI        0.188125    0.406875    0.719375     0.004307
NI5297   NI        0.219375    0.375625    0.719375     0.004307
NI5298   NI        0.219375    0.406875    0.688125     0.004307
NI5299   NI        0.250625    0.375625    0.688125     0.004307
NI5300   NI        0.250625    0.406875    0.719375     0.004307
NI5301   NI        0.281875    0.375625    0.719375     0.004307
NI5302   NI        0.281875    0.406875    0.688125     0.004307
NI5303   NI        0.313125    0.375625    0.688125     0.004307
NI5304   NI        0.313125    0.406875    0.719375     0.004307
NI5305   NI        0.344375    0.375625    0.719375     0.004307
NI5306   NI        0.344375    0.406875    0.688125     0.004307
NI5307   NI        0.375625    0.375625    0.688125     0.004307
NI5308   NI        0.375625    0.406875    0.719375     0.004307
NI5309   NI        0.406875    0.375625    0.719375     0.004307
NI5310   NI        0.406875    0.406875    0.688125     0.004307
NI5311   NI        0.438125    0.375625    0.688125     0.004307
NI5312   NI        0.438125    0.406875    0.719375     0.004307
NI5313   NI        0.469375    0.375625    0.719375     0.004307
NI5314   NI        0.469375    0.406875    0.688125     0.004307
NI5315   NI        0.500625    0.375625    0.688125     0.004307
NI5316   NI        0.500625    0.406875    0.719375     0.004307
NI5317   NI        0.531875    0.375625    0.719375     0.004307
NI5318   NI        0.531875    0.406875    0.688125     0.004307
NI5319   NI        0.563125    0.375625    0.688125     0.004307
NI5320   NI        0.563125    0.406875    0.719375     0.004307
NI5321   NI        0.594375    0.375625    0.719375     0.004307
NI5322   NI        0.594375    0.406875    0.688125     0.004307
NI5323   NI        0.625625    0.375625    0.688125     0.004307
NI5324   NI        0.625625    0.406875    0.719375     0.004307
NI5325   NI        0.656875    0.375625    0.719375     0.004307
NI5326   NI        0.656875    0.406875    0.688125     0.004307
NI5327   NI        0.688125    0.375625    0.688125     0.004307
NI5328   NI        0.688125    0.406875    0.719375     0.004307
NI5329   NI        0.719375    0.375625    0.719375     0.004307
NI5330   NI        0.719375    0.406875    0.688125     0.004307
NI5331   NI        0.750625    0.375625    0.688125     0.004307
NI5332   NI        0.750625    0.406875    0.719375     0.004307
NI5333   NI        0.781875    0.406875    0.688125     0.004307
NI5334   NI        0.094375    0.469375    0.688125     0.004307
NI5335   NI        0.125625    0.438125    0.688125     0.004307
NI5336   NI        0.125625    0.469375    0.719375     0.004307
NI5337   NI        0.156875    0.438125    0.719375     0.004307
NI5338   NI        0.156875    0.469375    0.688125     0.004307
NI5339   NI        0.188125    0.438125    0.688125     0.004307
NI5340   NI        0.188125    0.469375    0.719375     0.004307
NI5341   NI        0.219375    0.438125    0.719375     0.004307
NI5342   NI        0.219375    0.469375    0.688125     0.004307
NI5343   NI        0.250625    0.438125    0.688125     0.004307
NI5344   NI        0.250625    0.469375    0.719375     0.004307
NI5345   NI        0.281875    0.438125    0.719375     0.004307
NI5346   NI        0.281875    0.469375    0.688125     0.004307
NI5347   NI        0.313125    0.438125    0.688125     0.004307
NI5348   NI        0.313125    0.469375    0.719375     0.004307
NI5349   NI        0.344375    0.438125    0.719375     0.004307
NI5350   NI        0.344375    0.469375    0.688125     0.004307
NI5351   NI        0.375625    0.438125    0.688125     0.004307
NI5352   NI        0.375625    0.469375    0.719375     0.004307
NI5353   NI        0.406875    0.438125    0.719375     0.004307
NI5354   NI        0.406875    0.469375    0.688125     0.004307
NI5355   NI        0.438125    0.438125    0.688125     0.004307
NI5356   NI        0.438125    0.469375    0.719375     0.004307
NI5357   NI        0.469375    0.438125    0.719375     0.004307
NI5358   NI        0.469375    0.469375    0.688125     0.004307
NI5359   NI        0.500625    0.438125    0.688125     0.004307
NI5360   NI        0.500625    0.469375    0.719375     0.004307
NI5361   NI        0.531875    0.438125    0.719375     0.004307
NI5362   NI        0.531875    0.469375    0.688125     0.004307
NI5363   NI        0.563125    0.438125    0.688125     0.004307
NI5364   NI        0.563125    0.469375    0.719375     0.004307
NI5365   NI        0.594375    0.438125    0.719375     0.004307
NI5366   NI        0.594375    0.469375    0.688125     0.004307
NI5367   NI        0.625625    0.438125    0.688125     0.004307
NI5368   NI        0.625625    0.469375    0.719375     0.004307
NI5369   NI        0.656875    0.438125    0.719375     0.004307
NI5370   NI        0.656875    0.469375    0.688125     0.004307
NI5371   NI        0.688125    0.438125    0.688125     0.004307
NI5372   NI        0.688125    0.469375    0.719375     0.004307
NI5373   NI        0.719375    0.438125    0.719375     0.004307
NI5374   NI        0.719375    0.469375    0.688125     0.004307
NI5375   NI        0.750625    0.438125    0.688125     0.004307
NI5376   NI        0.750625    0.469375    0.719375     0.004307
NI5377   NI        0.781875    0.469375    0.688125     0.004307
NI5378   NI        0.094375    0.531875    0.688125     0.004307
NI5379   NI        0.125625    0.500625    0.688125     0.004307
NI5380   NI        0.125625    0.531875    0.719375     0.004307
NI5381   NI        0.156875    0.500625    0.719375     0.004307
NI5382   NI        0.156875    0.531875    0.688125     0.004307
NI5383   NI        0.188125    0.500625    0.688125     0.004307
NI5384   NI        0.188125    0.531875    0.719375     0.004307
NI5385   NI        0.219375    0.500625    0.719375     0.004307
NI5386   NI        0.219375    0.531875    0.688125     0.004307
NI5387   NI        0.250625    0.500625    0.688125     0.004307
NI5388   NI        0.250625    0.531875    0.719375     0.004307
NI5389   NI        0.281875    0.500625    0.719375     0.004307
NI5390   NI        0.281875    0.531875    0.688125     0.004307
NI5391   NI        0.313125    0.500625    0.688125     0.004307
NI5392   NI        0.313125    0.531875    0.719375     0.004307
NI5393   NI        0.344375    0.500625    0.719375     0.004307
NI5394   NI        0.344375    0.531875    0.688125     0.004307
NI5395   NI        0.375625    0.500625    0.688125     0.004307
NI5396   NI        0.375625    0.531875    0.719375     0.004307
NI5397   NI        0.406875    0.500625    0.719375     0.004307
NI5398   NI        0.406875    0.531875    0.688125     0.004307
NI5399   NI        0.438125    0.500625    0.688125     0.004307
NI5400   NI        0.438125    0.531875    0.719375     0.004307
NI5401   NI        0.469375    0.500625    0.719375     0.004307
NI5402   NI        0.469375    0.531875    0.688125     0.004307
NI5403   NI        0.500625    0.500625    0.688125     0.004307
NI5404   NI        0.500625    0.531875    0.719375     0.004307
NI5405   NI        0.531875    0.500625    0.719375     0.004307
NI5406   NI        0.531875    0.531875    0.688125     0.004307
NI5407   NI        0.563125    0.500625    0.688125     0.004307
NI5408   NI        0.563125    0.531875    0.719375     0.004307
NI5409   NI        0.594375    0.500625    0.719375     0.004307
NI5410   NI        0.594375    0.531875    0.688125     0.004307
NI5411   NI        0.625625    0.500625    0.688125     0.004307
NI5412   NI        0.625625    0.531875    0.719375     0.004307
NI5413   NI        0.656875    0.500625    0.719375     0.004307
NI5414   NI        0.656875    0.531875    0.688125     0.004307
NI5415   NI        0.688125    0.500625    0.688125     0.004307
NI5416   NI        0.688125    0.531875    0.719375     0.004307
NI5417   NI        0.719375    0.500625    0.719375     0.004307
NI5418   NI        0.719375    0.531875    0.688125     0.004307
NI5419   NI        0.750625    0.500625    0.688125     0.004307
NI5420   NI        0.750625    0.531875    0.719375     0.004307
NI5421   NI        0.781875    0.531875    0.688125     0.004307
NI5422   NI        0.125625    0.563125    0.688125     0.004307
NI5423   NI        0.156875    0.563125    0.719375     0.004307
NI5424   NI        0.156875    0.594375    0.688125     0.004307
NI5425   NI        0.188125    0.563125    0.688125     0.004307
NI5426   NI        0.188125    0.594375    0.719375     0.004307
NI5427   NI        0.219375    0.563125    0.719375     0.004307
NI5428   NI        0.219375    0.594375    0.688125     0.004307
NI5429   NI        0.250625    0.563125    0.688125     0.004307
NI5430   NI        0.250625    0.594375    0.719375     0.004307
NI5431   NI        0.281875    0.563125    0.719375     0.004307
NI5432   NI        0.281875    0.594375    0.688125     0.004307
NI5433   NI        0.313125    0.563125    0.688125     0.004307
NI5434   NI        0.313125    0.594375    0.719375     0.004307
NI5435   NI        0.344375    0.563125    0.719375     0.004307
NI5436   NI        0.344375    0.594375    0.688125     0.004307
NI5437   NI        0.375625    0.563125    0.688125     0.004307
NI5438   NI        0.375625    0.594375    0.719375     0.004307
NI5439   NI        0.406875    0.563125    0.719375     0.004307
NI5440   NI        0.406875    0.594375    0.688125     0.004307
NI5441   NI        0.438125    0.563125    0.688125     0.004307
NI5442   NI        0.438125    0.594375    0.719375     0.004307
NI5443   NI        0.469375    0.563125    0.719375     0.004307
NI5444   NI        0.469375    0.594375    0.688125     0.004307
NI5445   NI        0.500625    0.563125    0.688125     0.004307
NI5446   NI        0.500625    0.594375    0.719375     0.004307
NI5447   NI        0.531875    0.563125    0.719375     0.004307
NI5448   NI        0.531875    0.594375    0.688125     0.004307
NI5449   NI        0.563125    0.563125    0.688125     0.004307
NI5450   NI        0.563125    0.594375    0.719375     0.004307
NI5451   NI        0.594375    0.563125    0.719375     0.004307
NI5452   NI        0.594375    0.594375    0.688125     0.004307
NI5453   NI        0.625625    0.563125    0.688125     0.004307
NI5454   NI        0.625625    0.594375    0.719375     0.004307
NI5455   NI        0.656875    0.563125    0.719375     0.004307
NI5456   NI        0.656875    0.594375    0.688125     0.004307
NI5457   NI        0.688125    0.563125    0.688125     0.004307
NI5458   NI        0.688125    0.594375    0.719375     0.004307
NI5459   NI        0.719375    0.563125    0.719375     0.004307
NI5460   NI        0.719375    0.594375    0.688125     0.004307
NI5461   NI        0.750625    0.563125    0.688125     0.004307
NI5462   NI        0.125625    0.625625    0.688125     0.004307
NI5463   NI        0.156875    0.625625    0.719375     0.004307
NI5464   NI        0.156875    0.656875    0.688125     0.004307
NI5465   NI        0.188125    0.625625    0.688125     0.004307
NI5466   NI        0.188125    0.656875    0.719375     0.004307
NI5467   NI        0.219375    0.625625    0.719375     0.004307
NI5468   NI        0.219375    0.656875    0.688125     0.004307
NI5469   NI        0.250625    0.625625    0.688125     0.004307
NI5470   NI        0.250625    0.656875    0.719375     0.004307
NI5471   NI        0.281875    0.625625    0.719375     0.004307
NI5472   NI        0.281875    0.656875    0.688125     0.004307
NI5473   NI        0.313125    0.625625    0.688125     0.004307
NI5474   NI        0.313125    0.656875    0.719375     0.004307
NI5475   NI        0.344375    0.625625    0.719375     0.004307
NI5476   NI        0.344375    0.656875    0.688125     0.004307
NI5477   NI        0.375625    0.625625    0.688125     0.004307
NI5478   NI        0.375625    0.656875    0.719375     0.004307
NI5479   NI        0.406875    0.625625    0.719375     0.004307
NI5480   NI        0.406875    0.656875    0.688125     0.004307
NI5481   NI        0.438125    0.625625    0.688125     0.004307
NI5482   NI        0.438125    0.656875    0.719375     0.004307
NI5483   NI        0.469375    0.625625    0.719375     0.004307
NI5484   NI        0.469375    0.656875    0.688125     0.004307
NI5485   NI        0.500625    0.625625    0.688125     0.004307
NI5486   NI        0.500625    0.656875    0.719375     0.004307
NI5487   NI        0.531875    0.625625    0.719375     0.004307
NI5488   NI        0.531875    0.656875    0.688125     0.004307
NI5489   NI        0.563125    0.625625    0.688125     0.004307
NI5490   NI        0.563125    0.656875    0.719375     0.004307
NI5491   NI        0.594375    0.625625    0.719375     0.004307
NI5492   NI        0.594375    0.656875    0.688125     0.004307
NI5493   NI        0.625625    0.625625    0.688125     0.004307
NI5494   NI        0.625625    0.656875    0.719375     0.004307
NI5495   NI        0.656875    0.625625    0.719375     0.004307
NI5496   NI        0.656875    0.656875    0.688125     0.004307
NI5497   NI        0.688125    0.625625    0.688125     0.004307
NI5498   NI        0.688125    0.656875    0.719375     0.004307
NI5499   NI        0.719375    0.625625    0.719375     0.004307
NI5500   NI        0.719375    0.656875    0.688125     0.004307
NI5501   NI        0.750625    0.625625    0.688125     0.004307
NI5502   NI        0.188125    0.688125    0.688125     0.004307
NI5503   NI        0.219375    0.688125    0.719375     0.004307
NI5504   NI        0.219375    0.719375    0.688125     0.004307
NI5505   NI        0.250625    0.688125    0.688125     0.004307
NI5506   NI        0.250625    0.719375    0.719375     0.004307
NI5507   NI        0.281875    0.688125    0.719375     0.004307
NI5508   NI        0.281875    0.719375    0.688125     0.004307
NI5509   NI        0.313125    0.688125    0.688125     0.004307
NI5510   NI        0.313125    0.719375    0.719375     0.004307
NI5511   NI        0.344375    0.688125    0.719375     0.004307
NI5512   NI        0.344375    0.719375    0.688125     0.004307
NI5513   NI        0.375625    0.688125    0.688125     0.004307
NI5514   NI        0.375625    0.719375    0.719375     0.004307
NI5515   NI        0.406875    0.688125    0.719375     0.004307
NI5516   NI        0.406875    0.719375    0.688125     0.004307
NI5517   NI        0.438125    0.688125    0.688125     0.004307
NI5518   NI        0.438125    0.719375    0.719375     0.004307
NI5519   NI        0.469375    0.688125    0.719375     0.004307
NI5520   NI        0.469375    0.719375    0.688125     0.004307
NI5521   NI        0.500625    0.688125    0.688125     0.004307
NI5522   NI        0.500625    0.719375    0.719375     0.004307
NI5523   NI        0.531875    0.688125    0.719375     0.004307
NI5524   NI        0.531875    0.719375    0.688125     0.004307
NI5525   NI        0.563125    0.688125    0.688125     0.004307
NI5526   NI        0.563125    0.719375    0.719375     0.004307
NI5527   NI        0.594375    0.688125    0.719375     0.004307
NI5528   NI        0.594375    0.719375    0.688125     0.004307
NI5529   NI        0.625625    0.688125    0.688125     0.004307
NI5530   NI        0.625625    0.719375    0.719375     0.004307
NI5531   NI        0.656875    0.688125    0.719375     0.004307
NI5532   NI        0.656875    0.719375    0.688125     0.004307
NI5533   NI        0.688125    0.688125    0.688125     0.004307
NI5534   NI        0.250625    0.750625    0.688125     0.004307
NI5535   NI        0.313125    0.750625    0.688125     0.004307
NI5536   NI        0.344375    0.750625    0.719375     0.004307
NI5537   NI        0.344375    0.781875    0.688125     0.004307
NI5538   NI        0.375625    0.750625    0.688125     0.004307
NI5539   NI        0.406875    0.750625    0.719375     0.004307
NI5540   NI        0.406875    0.781875    0.688125     0.004307
NI5541   NI        0.438125    0.750625    0.688125     0.004307
NI5542   NI        0.469375    0.750625    0.719375     0.004307
NI5543   NI        0.469375    0.781875    0.688125     0.004307
NI5544   NI        0.500625    0.750625    0.688125     0.004307
NI5545   NI        0.531875    0.750625    0.719375     0.004307
NI5546   NI        0.531875    0.781875    0.688125     0.004307
NI5547   NI        0.563125    0.750625    0.688125     0.004307
NI5548   NI        0.625625    0.750625    0.688125     0.004307
NI5549   NI        0.344375    0.156875    0.750625     0.004307
NI5550   NI        0.406875    0.156875    0.750625     0.004307
NI5551   NI        0.438125    0.125625    0.750625     0.004307
NI5552   NI        0.469375    0.156875    0.750625     0.004307
NI5553   NI        0.531875    0.156875    0.750625     0.004307
NI5554   NI        0.219375    0.219375    0.750625     0.004307
NI5555   NI        0.250625    0.188125    0.750625     0.004307
NI5556   NI        0.281875    0.219375    0.750625     0.004307
NI5557   NI        0.313125    0.188125    0.750625     0.004307
NI5558   NI        0.313125    0.219375    0.781875     0.004307
NI5559   NI        0.344375    0.188125    0.781875     0.004307
NI5560   NI        0.344375    0.219375    0.750625     0.004307
NI5561   NI        0.375625    0.188125    0.750625     0.004307
NI5562   NI        0.375625    0.219375    0.781875     0.004307
NI5563   NI        0.406875    0.188125    0.781875     0.004307
NI5564   NI        0.406875    0.219375    0.750625     0.004307
NI5565   NI        0.438125    0.188125    0.750625     0.004307
NI5566   NI        0.438125    0.219375    0.781875     0.004307
NI5567   NI        0.469375    0.188125    0.781875     0.004307
NI5568   NI        0.469375    0.219375    0.750625     0.004307
NI5569   NI        0.500625    0.188125    0.750625     0.004307
NI5570   NI        0.500625    0.219375    0.781875     0.004307
NI5571   NI        0.531875    0.188125    0.781875     0.004307
NI5572   NI        0.531875    0.219375    0.750625     0.004307
NI5573   NI        0.563125    0.188125    0.750625     0.004307
NI5574   NI        0.563125    0.219375    0.781875     0.004307
NI5575   NI        0.594375    0.219375    0.750625     0.004307
NI5576   NI        0.625625    0.188125    0.750625     0.004307
NI5577   NI        0.656875    0.219375    0.750625     0.004307
NI5578   NI        0.188125    0.250625    0.750625     0.004307
NI5579   NI        0.219375    0.281875    0.750625     0.004307
NI5580   NI        0.250625    0.250625    0.750625     0.004307
NI5581   NI        0.250625    0.281875    0.781875     0.004307
NI5582   NI        0.281875    0.250625    0.781875     0.004307
NI5583   NI        0.281875    0.281875    0.750625     0.004307
NI5584   NI        0.313125    0.250625    0.750625     0.004307
NI5585   NI        0.313125    0.281875    0.781875     0.004307
NI5586   NI        0.344375    0.250625    0.781875     0.004307
NI5587   NI        0.344375    0.281875    0.750625     0.004307
NI5588   NI        0.375625    0.250625    0.750625     0.004307
NI5589   NI        0.375625    0.281875    0.781875     0.004307
NI5590   NI        0.406875    0.250625    0.781875     0.004307
NI5591   NI        0.406875    0.281875    0.750625     0.004307
NI5592   NI        0.438125    0.250625    0.750625     0.004307
NI5593   NI        0.438125    0.281875    0.781875     0.004307
NI5594   NI        0.469375    0.250625    0.781875     0.004307
NI5595   NI        0.469375    0.281875    0.750625     0.004307
NI5596   NI        0.500625    0.250625    0.750625     0.004307
NI5597   NI        0.500625    0.281875    0.781875     0.004307
NI5598   NI        0.531875    0.250625    0.781875     0.004307
NI5599   NI        0.531875    0.281875    0.750625     0.004307
NI5600   NI        0.563125    0.250625    0.750625     0.004307
NI5601   NI        0.563125    0.281875    0.781875     0.004307
NI5602   NI        0.594375    0.250625    0.781875     0.004307
NI5603   NI        0.594375    0.281875    0.750625     0.004307
NI5604   NI        0.625625    0.250625    0.750625     0.004307
NI5605   NI        0.625625    0.281875    0.781875     0.004307
NI5606   NI        0.656875    0.281875    0.750625     0.004307
NI5607   NI        0.688125    0.250625    0.750625     0.004307
NI5608   NI        0.156875    0.344375    0.750625     0.004307
NI5609   NI        0.188125    0.313125    0.750625     0.004307
NI5610   NI        0.188125    0.344375    0.781875     0.004307
NI5611   NI        0.219375    0.313125    0.781875     0.004307
NI5612   NI        0.219375    0.344375    0.750625     0.004307
NI5613   NI        0.250625    0.313125    0.750625     0.004307
NI5614   NI        0.250625    0.344375    0.781875     0.004307
NI5615   NI        0.281875    0.313125    0.781875     0.004307
NI5616   NI        0.281875    0.344375    0.750625     0.004307
NI5617   NI        0.313125    0.313125    0.750625     0.004307
NI5618   NI        0.313125    0.344375    0.781875     0.004307
NI5619   NI        0.344375    0.313125    0.781875     0.004307
NI5620   NI        0.344375    0.344375    0.750625     0.004307
NI5621   NI        0.375625    0.313125    0.750625     0.004307
NI5622   NI        0.375625    0.344375    0.781875     0.004307
NI5623   NI        0.406875    0.313125    0.781875     0.004307
NI5624   NI        0.406875    0.344375    0.750625     0.004307
NI5625   NI        0.438125    0.313125    0.750625     0.004307
NI5626   NI        0.438125    0.344375    0.781875     0.004307
NI5627   NI        0.469375    0.313125    0.781875     0.004307
NI5628   NI        0.469375    0.344375    0.750625     0.004307
NI5629   NI        0.500625    0.313125    0.750625     0.004307
NI5630   NI        0.500625    0.344375    0.781875     0.004307
NI5631   NI        0.531875    0.313125    0.781875     0.004307
NI5632   NI        0.531875    0.344375    0.750625     0.004307
NI5633   NI        0.563125    0.313125    0.750625     0.004307
NI5634   NI        0.563125    0.344375    0.781875     0.004307
NI5635   NI        0.594375    0.313125    0.781875     0.004307
NI5636   NI        0.594375    0.344375    0.750625     0.004307
NI5637   NI        0.625625    0.313125    0.750625     0.004307
NI5638   NI        0.625625    0.344375    0.781875     0.004307
NI5639   NI        0.656875    0.313125    0.781875     0.004307
NI5640   NI        0.656875    0.344375    0.750625     0.004307
NI5641   NI        0.688125    0.313125    0.750625     0.004307
NI5642   NI        0.688125    0.344375    0.781875     0.004307
NI5643   NI        0.719375    0.344375    0.750625     0.004307
NI5644   NI        0.156875    0.406875    0.750625     0.004307
NI5645   NI        0.188125    0.375625    0.750625     0.004307
NI5646   NI        0.188125    0.406875    0.781875     0.004307
NI5647   NI        0.219375    0.375625    0.781875     0.004307
NI5648   NI        0.219375    0.406875    0.750625     0.004307
NI5649   NI        0.250625    0.375625    0.750625     0.004307
NI5650   NI        0.250625    0.406875    0.781875     0.004307
NI5651   NI        0.281875    0.375625    0.781875     0.004307
NI5652   NI        0.281875    0.406875    0.750625     0.004307
NI5653   NI        0.313125    0.375625    0.750625     0.004307
NI5654   NI        0.313125    0.406875    0.781875     0.004307
NI5655   NI        0.344375    0.375625    0.781875     0.004307
NI5656   NI        0.344375    0.406875    0.750625     0.004307
NI5657   NI        0.375625    0.375625    0.750625     0.004307
NI5658   NI        0.375625    0.406875    0.781875     0.004307
NI5659   NI        0.406875    0.375625    0.781875     0.004307
NI5660   NI        0.406875    0.406875    0.750625     0.004307
NI5661   NI        0.438125    0.375625    0.750625     0.004307
NI5662   NI        0.438125    0.406875    0.781875     0.004307
NI5663   NI        0.469375    0.375625    0.781875     0.004307
NI5664   NI        0.469375    0.406875    0.750625     0.004307
NI5665   NI        0.500625    0.375625    0.750625     0.004307
NI5666   NI        0.500625    0.406875    0.781875     0.004307
NI5667   NI        0.531875    0.375625    0.781875     0.004307
NI5668   NI        0.531875    0.406875    0.750625     0.004307
NI5669   NI        0.563125    0.375625    0.750625     0.004307
NI5670   NI        0.563125    0.406875    0.781875     0.004307
NI5671   NI        0.594375    0.375625    0.781875     0.004307
NI5672   NI        0.594375    0.406875    0.750625     0.004307
NI5673   NI        0.625625    0.375625    0.750625     0.004307
NI5674   NI        0.625625    0.406875    0.781875     0.004307
NI5675   NI        0.656875    0.375625    0.781875     0.004307
NI5676   NI        0.656875    0.406875    0.750625     0.004307
NI5677   NI        0.688125    0.375625    0.750625     0.004307
NI5678   NI        0.688125    0.406875    0.781875     0.004307
NI5679   NI        0.719375    0.406875    0.750625     0.004307
NI5680   NI        0.125625    0.438125    0.750625     0.004307
NI5681   NI        0.156875    0.469375    0.750625     0.004307
NI5682   NI        0.188125    0.438125    0.750625     0.004307
NI5683   NI        0.188125    0.469375    0.781875     0.004307
NI5684   NI        0.219375    0.438125    0.781875     0.004307
NI5685   NI        0.219375    0.469375    0.750625     0.004307
NI5686   NI        0.250625    0.438125    0.750625     0.004307
NI5687   NI        0.250625    0.469375    0.781875     0.004307
NI5688   NI        0.281875    0.438125    0.781875     0.004307
NI5689   NI        0.281875    0.469375    0.750625     0.004307
NI5690   NI        0.313125    0.438125    0.750625     0.004307
NI5691   NI        0.313125    0.469375    0.781875     0.004307
NI5692   NI        0.344375    0.438125    0.781875     0.004307
NI5693   NI        0.344375    0.469375    0.750625     0.004307
NI5694   NI        0.375625    0.438125    0.750625     0.004307
NI5695   NI        0.375625    0.469375    0.781875     0.004307
NI5696   NI        0.406875    0.438125    0.781875     0.004307
NI5697   NI        0.406875    0.469375    0.750625     0.004307
NI5698   NI        0.438125    0.438125    0.750625     0.004307
NI5699   NI        0.438125    0.469375    0.781875     0.004307
NI5700   NI        0.469375    0.438125    0.781875     0.004307
NI5701   NI        0.469375    0.469375    0.750625     0.004307
NI5702   NI        0.500625    0.438125    0.750625     0.004307
NI5703   NI        0.500625    0.469375    0.781875     0.004307
NI5704   NI        0.531875    0.438125    0.781875     0.004307
NI5705   NI        0.531875    0.469375    0.750625     0.004307
NI5706   NI        0.563125    0.438125    0.750625     0.004307
NI5707   NI        0.563125    0.469375    0.781875     0.004307
NI5708   NI        0.594375    0.438125    0.781875     0.004307
NI5709   NI        0.594375    0.469375    0.750625     0.004307
NI5710   NI        0.625625    0.438125    0.750625     0.004307
NI5711   NI        0.625625    0.469375    0.781875     0.004307
NI5712   NI        0.656875    0.438125    0.781875     0.004307
NI5713   NI        0.656875    0.469375    0.750625     0.004307
NI5714   NI        0.688125    0.438125    0.750625     0.004307
NI5715   NI        0.688125    0.469375    0.781875     0.004307
NI5716   NI        0.719375    0.469375    0.750625     0.004307
NI5717   NI        0.750625    0.438125    0.750625     0.004307
NI5718   NI        0.156875    0.531875    0.750625     0.004307
NI5719   NI        0.188125    0.500625    0.750625     0.004307
NI5720   NI        0.188125    0.531875    0.781875     0.004307
NI5721   NI        0.219375    0.500625    0.781875     0.004307
NI5722   NI        0.219375    0.531875    0.750625     0.004307
NI5723   NI        0.250625    0.500625    0.750625     0.004307
NI5724   NI        0.250625    0.531875    0.781875     0.004307
NI5725   NI        0.281875    0.500625    0.781875     0.004307
NI5726   NI        0.281875    0.531875    0.750625     0.004307
NI5727   NI        0.313125    0.500625    0.750625     0.004307
NI5728   NI        0.313125    0.531875    0.781875     0.004307
NI5729   NI        0.344375    0.500625    0.781875     0.004307
NI5730   NI        0.344375    0.531875    0.750625     0.004307
NI5731   NI        0.375625    0.500625    0.750625     0.004307
NI5732   NI        0.375625    0.531875    0.781875     0.004307
NI5733   NI        0.406875    0.500625    0.781875     0.004307
NI5734   NI        0.406875    0.531875    0.750625     0.004307
NI5735   NI        0.438125    0.500625    0.750625     0.004307
NI5736   NI        0.438125    0.531875    0.781875     0.004307
NI5737   NI        0.469375    0.500625    0.781875     0.004307
NI5738   NI        0.469375    0.531875    0.750625     0.004307
NI5739   NI        0.500625    0.500625    0.750625     0.004307
NI5740   NI        0.500625    0.531875    0.781875     0.004307
NI5741   NI        0.531875    0.500625    0.781875     0.004307
NI5742   NI        0.531875    0.531875    0.750625     0.004307
NI5743   NI        0.563125    0.500625    0.750625     0.004307
NI5744   NI        0.563125    0.531875    0.781875     0.004307
NI5745   NI        0.594375    0.500625    0.781875     0.004307
NI5746   NI        0.594375    0.531875    0.750625     0.004307
NI5747   NI        0.625625    0.500625    0.750625     0.004307
NI5748   NI        0.625625    0.531875    0.781875     0.004307
NI5749   NI        0.656875    0.500625    0.781875     0.004307
NI5750   NI        0.656875    0.531875    0.750625     0.004307
NI5751   NI        0.688125    0.500625    0.750625     0.004307
NI5752   NI        0.688125    0.531875    0.781875     0.004307
NI5753   NI        0.719375    0.531875    0.750625     0.004307
NI5754   NI        0.188125    0.563125    0.750625     0.004307
NI5755   NI        0.219375    0.563125    0.781875     0.004307
NI5756   NI        0.219375    0.594375    0.750625     0.004307
NI5757   NI        0.250625    0.563125    0.750625     0.004307
NI5758   NI        0.250625    0.594375    0.781875     0.004307
NI5759   NI        0.281875    0.563125    0.781875     0.004307
NI5760   NI        0.281875    0.594375    0.750625     0.004307
NI5761   NI        0.313125    0.563125    0.750625     0.004307
NI5762   NI        0.313125    0.594375    0.781875     0.004307
NI5763   NI        0.344375    0.563125    0.781875     0.004307
NI5764   NI        0.344375    0.594375    0.750625     0.004307
NI5765   NI        0.375625    0.563125    0.750625     0.004307
NI5766   NI        0.375625    0.594375    0.781875     0.004307
NI5767   NI        0.406875    0.563125    0.781875     0.004307
NI5768   NI        0.406875    0.594375    0.750625     0.004307
NI5769   NI        0.438125    0.563125    0.750625     0.004307
NI5770   NI        0.438125    0.594375    0.781875     0.004307
NI5771   NI        0.469375    0.563125    0.781875     0.004307
NI5772   NI        0.469375    0.594375    0.750625     0.004307
NI5773   NI        0.500625    0.563125    0.750625     0.004307
NI5774   NI        0.500625    0.594375    0.781875     0.004307
NI5775   NI        0.531875    0.563125    0.781875     0.004307
NI5776   NI        0.531875    0.594375    0.750625     0.004307
NI5777   NI        0.563125    0.563125    0.750625     0.004307
NI5778   NI        0.563125    0.594375    0.781875     0.004307
NI5779   NI        0.594375    0.563125    0.781875     0.004307
NI5780   NI        0.594375    0.594375    0.750625     0.004307
NI5781   NI        0.625625    0.563125    0.750625     0.004307
NI5782   NI        0.625625    0.594375    0.781875     0.004307
NI5783   NI        0.656875    0.563125    0.781875     0.004307
NI5784   NI        0.656875    0.594375    0.750625     0.004307
NI5785   NI        0.688125    0.563125    0.750625     0.004307
NI5786   NI        0.188125    0.625625    0.750625     0.004307
NI5787   NI        0.219375    0.656875    0.750625     0.004307
NI5788   NI        0.250625    0.625625    0.750625     0.004307
NI5789   NI        0.281875    0.625625    0.781875     0.004307
NI5790   NI        0.281875    0.656875    0.750625     0.004307
NI5791   NI        0.313125    0.625625    0.750625     0.004307
NI5792   NI        0.313125    0.656875    0.781875     0.004307
NI5793   NI        0.344375    0.625625    0.781875     0.004307
NI5794   NI        0.344375    0.656875    0.750625     0.004307
NI5795   NI        0.375625    0.625625    0.750625     0.004307
NI5796   NI        0.375625    0.656875    0.781875     0.004307
NI5797   NI        0.406875    0.625625    0.781875     0.004307
NI5798   NI        0.406875    0.656875    0.750625     0.004307
NI5799   NI        0.438125    0.625625    0.750625     0.004307
NI5800   NI        0.438125    0.656875    0.781875     0.004307
NI5801   NI        0.469375    0.625625    0.781875     0.004307
NI5802   NI        0.469375    0.656875    0.750625     0.004307
NI5803   NI        0.500625    0.625625    0.750625     0.004307
NI5804   NI        0.500625    0.656875    0.781875     0.004307
NI5805   NI        0.531875    0.625625    0.781875     0.004307
NI5806   NI        0.531875    0.656875    0.750625     0.004307
NI5807   NI        0.563125    0.625625    0.750625     0.004307
NI5808   NI        0.563125    0.656875    0.781875     0.004307
NI5809   NI        0.594375    0.625625    0.781875     0.004307
NI5810   NI        0.594375    0.656875    0.750625     0.004307
NI5811   NI        0.625625    0.625625    0.750625     0.004307
NI5812   NI        0.656875    0.656875    0.750625     0.004307
NI5813   NI        0.688125    0.625625    0.750625     0.004307
NI5814   NI        0.250625    0.688125    0.750625     0.004307
NI5815   NI        0.313125    0.688125    0.750625     0.004307
NI5816   NI        0.344375    0.688125    0.781875     0.004307
NI5817   NI        0.344375    0.719375    0.750625     0.004307
NI5818   NI        0.375625    0.688125    0.750625     0.004307
NI5819   NI        0.406875    0.688125    0.781875     0.004307
NI5820   NI        0.406875    0.719375    0.750625     0.004307
NI5821   NI        0.438125    0.688125    0.750625     0.004307
NI5822   NI        0.469375    0.688125    0.781875     0.004307
NI5823   NI        0.469375    0.719375    0.750625     0.004307
NI5824   NI        0.500625    0.688125    0.750625     0.004307
NI5825   NI        0.531875    0.688125    0.781875     0.004307
NI5826   NI        0.531875    0.719375    0.750625     0.004307
NI5827   NI        0.563125    0.688125    0.750625     0.004307
NI5828   NI        0.625625    0.688125    0.750625     0.004307
NI5829   NI        0.438125    0.750625    0.750625     0.004307
NI5830   NI        0.406875    0.219375    0.813125     0.004307
NI5831   NI        0.469375    0.219375    0.813125     0.004307
NI5832   NI        0.281875    0.281875    0.813125     0.004307
NI5833   NI        0.313125    0.250625    0.813125     0.004307
NI5834   NI        0.344375    0.281875    0.813125     0.004307
NI5835   NI        0.375625    0.250625    0.813125     0.004307
NI5836   NI        0.375625    0.281875    0.844375     0.004307
NI5837   NI        0.406875    0.281875    0.813125     0.004307
NI5838   NI        0.438125    0.250625    0.813125     0.004307
NI5839   NI        0.438125    0.281875    0.844375     0.004307
NI5840   NI        0.469375    0.281875    0.813125     0.004307
NI5841   NI        0.500625    0.250625    0.813125     0.004307
NI5842   NI        0.500625    0.281875    0.844375     0.004307
NI5843   NI        0.531875    0.281875    0.813125     0.004307
NI5844   NI        0.563125    0.250625    0.813125     0.004307
NI5845   NI        0.594375    0.281875    0.813125     0.004307
NI5846   NI        0.250625    0.313125    0.813125     0.004307
NI5847   NI        0.281875    0.344375    0.813125     0.004307
NI5848   NI        0.313125    0.313125    0.813125     0.004307
NI5849   NI        0.313125    0.344375    0.844375     0.004307
NI5850   NI        0.344375    0.313125    0.844375     0.004307
NI5851   NI        0.344375    0.344375    0.813125     0.004307
NI5852   NI        0.375625    0.313125    0.813125     0.004307
NI5853   NI        0.375625    0.344375    0.844375     0.004307
NI5854   NI        0.406875    0.313125    0.844375     0.004307
NI5855   NI        0.406875    0.344375    0.813125     0.004307
NI5856   NI        0.438125    0.313125    0.813125     0.004307
NI5857   NI        0.438125    0.344375    0.844375     0.004307
NI5858   NI        0.469375    0.313125    0.844375     0.004307
NI5859   NI        0.469375    0.344375    0.813125     0.004307
NI5860   NI        0.500625    0.313125    0.813125     0.004307
NI5861   NI        0.500625    0.344375    0.844375     0.004307
NI5862   NI        0.531875    0.313125    0.844375     0.004307
NI5863   NI        0.531875    0.344375    0.813125     0.004307
NI5864   NI        0.563125    0.313125    0.813125     0.004307
NI5865   NI        0.563125    0.344375    0.844375     0.004307
NI5866   NI        0.594375    0.344375    0.813125     0.004307
NI5867   NI        0.625625    0.313125    0.813125     0.004307
NI5868   NI        0.219375    0.406875    0.813125     0.004307
NI5869   NI        0.250625    0.375625    0.813125     0.004307
NI5870   NI        0.281875    0.375625    0.844375     0.004307
NI5871   NI        0.281875    0.406875    0.813125     0.004307
NI5872   NI        0.313125    0.375625    0.813125     0.004307
NI5873   NI        0.313125    0.406875    0.844375     0.004307
NI5874   NI        0.344375    0.375625    0.844375     0.004307
NI5875   NI        0.344375    0.406875    0.813125     0.004307
NI5876   NI        0.375625    0.375625    0.813125     0.004307
NI5877   NI        0.375625    0.406875    0.844375     0.004307
NI5878   NI        0.406875    0.375625    0.844375     0.004307
NI5879   NI        0.406875    0.406875    0.813125     0.004307
NI5880   NI        0.438125    0.375625    0.813125     0.004307
NI5881   NI        0.438125    0.406875    0.844375     0.004307
NI5882   NI        0.469375    0.375625    0.844375     0.004307
NI5883   NI        0.469375    0.406875    0.813125     0.004307
NI5884   NI        0.500625    0.375625    0.813125     0.004307
NI5885   NI        0.500625    0.406875    0.844375     0.004307
NI5886   NI        0.531875    0.375625    0.844375     0.004307
NI5887   NI        0.531875    0.406875    0.813125     0.004307
NI5888   NI        0.563125    0.375625    0.813125     0.004307
NI5889   NI        0.563125    0.406875    0.844375     0.004307
NI5890   NI        0.594375    0.375625    0.844375     0.004307
NI5891   NI        0.594375    0.406875    0.813125     0.004307
NI5892   NI        0.625625    0.375625    0.813125     0.004307
NI5893   NI        0.656875    0.406875    0.813125     0.004307
NI5894   NI        0.219375    0.469375    0.813125     0.004307
NI5895   NI        0.250625    0.438125    0.813125     0.004307
NI5896   NI        0.281875    0.438125    0.844375     0.004307
NI5897   NI        0.281875    0.469375    0.813125     0.004307
NI5898   NI        0.313125    0.438125    0.813125     0.004307
NI5899   NI        0.313125    0.469375    0.844375     0.004307
NI5900   NI        0.344375    0.438125    0.844375     0.004307
NI5901   NI        0.344375    0.469375    0.813125     0.004307
NI5902   NI        0.375625    0.438125    0.813125     0.004307
NI5903   NI        0.375625    0.469375    0.844375     0.004307
NI5904   NI        0.406875    0.438125    0.844375     0.004307
NI5905   NI        0.406875    0.469375    0.813125     0.004307
NI5906   NI        0.438125    0.438125    0.813125     0.004307
NI5907   NI        0.438125    0.469375    0.844375     0.004307
NI5908   NI        0.469375    0.438125    0.844375     0.004307
NI5909   NI        0.469375    0.469375    0.813125     0.004307
NI5910   NI        0.500625    0.438125    0.813125     0.004307
NI5911   NI        0.500625    0.469375    0.844375     0.004307
NI5912   NI        0.531875    0.438125    0.844375     0.004307
NI5913   NI        0.531875    0.469375    0.813125     0.004307
NI5914   NI        0.563125    0.438125    0.813125     0.004307
NI5915   NI        0.563125    0.469375    0.844375     0.004307
NI5916   NI        0.594375    0.438125    0.844375     0.004307
NI5917   NI        0.594375    0.469375    0.813125     0.004307
NI5918   NI        0.625625    0.438125    0.813125     0.004307
NI5919   NI        0.656875    0.469375    0.813125     0.004307
NI5920   NI        0.250625    0.500625    0.813125     0.004307
NI5921   NI        0.281875    0.500625    0.844375     0.004307
NI5922   NI        0.281875    0.531875    0.813125     0.004307
NI5923   NI        0.313125    0.500625    0.813125     0.004307
NI5924   NI        0.313125    0.531875    0.844375     0.004307
NI5925   NI        0.344375    0.500625    0.844375     0.004307
NI5926   NI        0.344375    0.531875    0.813125     0.004307
NI5927   NI        0.375625    0.500625    0.813125     0.004307
NI5928   NI        0.375625    0.531875    0.844375     0.004307
NI5929   NI        0.406875    0.500625    0.844375     0.004307
NI5930   NI        0.406875    0.531875    0.813125     0.004307
NI5931   NI        0.438125    0.500625    0.813125     0.004307
NI5932   NI        0.438125    0.531875    0.844375     0.004307
NI5933   NI        0.469375    0.500625    0.844375     0.004307
NI5934   NI        0.469375    0.531875    0.813125     0.004307
NI5935   NI        0.500625    0.500625    0.813125     0.004307
NI5936   NI        0.500625    0.531875    0.844375     0.004307
NI5937   NI        0.531875    0.500625    0.844375     0.004307
NI5938   NI        0.531875    0.531875    0.813125     0.004307
NI5939   NI        0.563125    0.500625    0.813125     0.004307
NI5940   NI        0.563125    0.531875    0.844375     0.004307
NI5941   NI        0.594375    0.500625    0.844375     0.004307
NI5942   NI        0.594375    0.531875    0.813125     0.004307
NI5943   NI        0.625625    0.500625    0.813125     0.004307
NI5944   NI        0.250625    0.563125    0.813125     0.004307
NI5945   NI        0.281875    0.594375    0.813125     0.004307
NI5946   NI        0.313125    0.563125    0.813125     0.004307
NI5947   NI        0.344375    0.563125    0.844375     0.004307
NI5948   NI        0.344375    0.594375    0.813125     0.004307
NI5949   NI        0.375625    0.563125    0.813125     0.004307
NI5950   NI        0.375625    0.594375    0.844375     0.004307
NI5951   NI        0.406875    0.563125    0.844375     0.004307
NI5952   NI        0.406875    0.594375    0.813125     0.004307
NI5953   NI        0.438125    0.563125    0.813125     0.004307
NI5954   NI        0.438125    0.594375    0.844375     0.004307
NI5955   NI        0.469375    0.563125    0.844375     0.004307
NI5956   NI        0.469375    0.594375    0.813125     0.004307
NI5957   NI        0.500625    0.563125    0.813125     0.004307
NI5958   NI        0.500625    0.594375    0.844375     0.004307
NI5959   NI        0.531875    0.563125    0.844375     0.004307
NI5960   NI        0.531875    0.594375    0.813125     0.004307
NI5961   NI        0.563125    0.563125    0.813125     0.004307
NI5962   NI        0.594375    0.594375    0.813125     0.004307
NI5963   NI        0.625625    0.563125    0.813125     0.004307
NI5964   NI        0.313125    0.625625    0.813125     0.004307
NI5965   NI        0.375625    0.625625    0.813125     0.004307
NI5966   NI        0.406875    0.656875    0.813125     0.004307
NI5967   NI        0.438125    0.625625    0.813125     0.004307
NI5968   NI        0.469375    0.656875    0.813125     0.004307
NI5969   NI        0.500625    0.625625    0.813125     0.004307
NI5970   NI        0.563125    0.625625    0.813125     0.004307
NI5971   NI        0.406875    0.406875    0.875625     0.004307
NI5972   NI        0.438125    0.375625    0.875625     0.004307
NI5973   NI        0.469375    0.406875    0.875625     0.004307
NI5974   NI        0.375625    0.438125    0.875625     0.004307
NI5975   NI        0.406875    0.469375    0.875625     0.004307
NI5976   NI        0.438125    0.438125    0.875625     0.004307
NI5977   NI        0.469375    0.469375    0.875625     0.004307
NI5978   NI        0.500625    0.438125    0.875625     0.004307
NI5979   NI        0.438125    0.500625    0.875625     0.004307
