data_00001
_audit_creation_method   'DISCUS'

_data_chemical_name_common 'Cu.cell Pearson1985'

_cell_length_a             54.2220
_cell_length_b             54.2220
_cell_length_c             54.2220
_cell_angle_alpha     90.0000
_cell_angle_beta      90.0000
_cell_angle_gamma     90.0000

_symmetry_space_group_name_H-M   'P1              '

loop_
_atom_site_label
_atom_site_fract_x
_atom_site_fract_y
_atom_site_fract_z
_atom_site_u_iso_or_equiv
CU        0.367333    0.334000    0.000667     0.006663
NI        0.400667    0.300667    0.000667     0.004307
CU        0.434000    0.334000    0.000667     0.006663
NI        0.467333    0.300667    0.000667     0.004307
NI        0.500667    0.334000    0.000667     0.004307
CU        0.300667    0.400667    0.000667     0.006663
CU        0.334000    0.367333    0.000667     0.006663
CU        0.367333    0.400667    0.000667     0.006663
NI        0.400667    0.367333    0.000667     0.004307
CU        0.434000    0.400667    0.000667     0.006663
NI        0.467333    0.367333    0.000667     0.004307
NI        0.500667    0.400667    0.000667     0.004307
NI        0.534000    0.367333    0.000667     0.004307
CU        0.567333    0.400667    0.000667     0.006663
NI        0.300667    0.467333    0.000667     0.004307
NI        0.334000    0.434000    0.000667     0.004307
CU        0.367333    0.467333    0.000667     0.006663
CU        0.400667    0.434000    0.000667     0.006663
NI        0.434000    0.467333    0.000667     0.004307
NI        0.467333    0.434000    0.000667     0.004307
NI        0.500667    0.467333    0.000667     0.004307
CU        0.534000    0.434000    0.000667     0.006663
CU        0.567333    0.467333    0.000667     0.006663
CU        0.334000    0.500667    0.000667     0.006663
CU        0.367333    0.534000    0.000667     0.006663
CU        0.400667    0.500667    0.000667     0.006663
CU        0.434000    0.534000    0.000667     0.006663
CU        0.467333    0.500667    0.000667     0.006663
NI        0.500667    0.534000    0.000667     0.004307
CU        0.534000    0.500667    0.000667     0.006663
CU        0.400667    0.567333    0.000667     0.006663
NI        0.467333    0.567333    0.000667     0.004307
NI        0.300667    0.200667    0.067333     0.004307
NI        0.367333    0.200667    0.067333     0.004307
CU        0.400667    0.167333    0.067333     0.006663
CU        0.434000    0.200667    0.067333     0.006663
NI        0.467333    0.167333    0.067333     0.004307
NI        0.500667    0.200667    0.067333     0.004307
NI        0.567333    0.200667    0.067333     0.004307
NI        0.234000    0.267333    0.067333     0.004307
NI        0.267333    0.234000    0.067333     0.004307
CU        0.300667    0.267333    0.067333     0.006663
CU        0.334000    0.234000    0.067333     0.006663
NI        0.334000    0.267333    0.034000     0.004307
CU        0.367333    0.234000    0.034000     0.006663
NI        0.367333    0.267333    0.067333     0.004307
NI        0.400667    0.234000    0.067333     0.004307
CU        0.400667    0.267333    0.034000     0.006663
NI        0.434000    0.234000    0.034000     0.004307
CU        0.434000    0.267333    0.067333     0.006663
CU        0.467333    0.234000    0.067333     0.006663
CU        0.467333    0.267333    0.034000     0.006663
CU        0.500667    0.234000    0.034000     0.006663
CU        0.500667    0.267333    0.067333     0.006663
NI        0.534000    0.234000    0.067333     0.004307
NI        0.534000    0.267333    0.034000     0.004307
NI        0.567333    0.267333    0.067333     0.004307
NI        0.600667    0.234000    0.067333     0.004307
CU        0.634000    0.267333    0.067333     0.006663
NI        0.200667    0.300667    0.067333     0.004307
NI        0.234000    0.334000    0.067333     0.004307
NI        0.267333    0.300667    0.067333     0.004307
NI        0.267333    0.334000    0.034000     0.004307
CU        0.300667    0.300667    0.034000     0.006663
NI        0.300667    0.334000    0.067333     0.004307
CU        0.334000    0.300667    0.067333     0.006663
NI        0.334000    0.334000    0.034000     0.004307
NI        0.367333    0.300667    0.034000     0.004307
NI        0.367333    0.334000    0.067333     0.004307
CU        0.400667    0.300667    0.067333     0.006663
NI        0.400667    0.334000    0.034000     0.004307
CU        0.434000    0.300667    0.034000     0.006663
NI        0.434000    0.334000    0.067333     0.004307
NI        0.467333    0.300667    0.067333     0.004307
CU        0.467333    0.334000    0.034000     0.006663
CU        0.500667    0.300667    0.034000     0.006663
CU        0.500667    0.334000    0.067333     0.006663
CU        0.534000    0.300667    0.067333     0.006663
CU        0.534000    0.334000    0.034000     0.006663
CU        0.567333    0.300667    0.034000     0.006663
NI        0.567333    0.334000    0.067333     0.004307
CU        0.600667    0.300667    0.067333     0.006663
NI        0.600667    0.334000    0.034000     0.004307
CU        0.634000    0.334000    0.067333     0.006663
NI        0.667333    0.300667    0.067333     0.004307
NI        0.167333    0.400667    0.067333     0.004307
CU        0.200667    0.367333    0.067333     0.006663
NI        0.234000    0.367333    0.034000     0.004307
CU        0.234000    0.400667    0.067333     0.006663
CU        0.267333    0.367333    0.067333     0.006663
CU        0.267333    0.400667    0.034000     0.006663
NI        0.300667    0.367333    0.034000     0.004307
CU        0.300667    0.400667    0.067333     0.006663
NI        0.334000    0.367333    0.067333     0.004307
NI        0.334000    0.400667    0.034000     0.004307
CU        0.367333    0.367333    0.034000     0.006663
NI        0.367333    0.400667    0.067333     0.004307
NI        0.400667    0.367333    0.067333     0.004307
CU        0.400667    0.400667    0.034000     0.006663
NI        0.434000    0.367333    0.034000     0.004307
NI        0.434000    0.400667    0.067333     0.004307
NI        0.467333    0.367333    0.067333     0.004307
CU        0.467333    0.400667    0.034000     0.006663
NI        0.500667    0.367333    0.034000     0.004307
CU        0.500667    0.400667    0.067333     0.006663
NI        0.534000    0.367333    0.067333     0.004307
CU        0.534000    0.400667    0.034000     0.006663
NI        0.567333    0.367333    0.034000     0.004307
NI        0.567333    0.400667    0.067333     0.004307
NI        0.600667    0.367333    0.067333     0.004307
NI        0.600667    0.400667    0.034000     0.004307
CU        0.634000    0.367333    0.034000     0.006663
CU        0.634000    0.400667    0.067333     0.006663
CU        0.667333    0.367333    0.067333     0.006663
CU        0.700667    0.400667    0.067333     0.006663
CU        0.167333    0.467333    0.067333     0.006663
NI        0.200667    0.434000    0.067333     0.004307
CU        0.234000    0.434000    0.034000     0.006663
CU        0.234000    0.467333    0.067333     0.006663
CU        0.267333    0.434000    0.067333     0.006663
CU        0.267333    0.467333    0.034000     0.006663
NI        0.300667    0.434000    0.034000     0.004307
NI        0.300667    0.467333    0.067333     0.004307
NI        0.334000    0.434000    0.067333     0.004307
NI        0.334000    0.467333    0.034000     0.004307
NI        0.367333    0.434000    0.034000     0.004307
CU        0.367333    0.467333    0.067333     0.006663
CU        0.400667    0.434000    0.067333     0.006663
CU        0.400667    0.467333    0.034000     0.006663
NI        0.434000    0.434000    0.034000     0.004307
NI        0.434000    0.467333    0.067333     0.004307
NI        0.467333    0.434000    0.067333     0.004307
NI        0.467333    0.467333    0.034000     0.004307
CU        0.500667    0.434000    0.034000     0.006663
NI        0.500667    0.467333    0.067333     0.004307
CU        0.534000    0.434000    0.067333     0.006663
CU        0.534000    0.467333    0.034000     0.006663
NI        0.567333    0.434000    0.034000     0.004307
NI        0.567333    0.467333    0.067333     0.004307
CU        0.600667    0.434000    0.067333     0.006663
CU        0.600667    0.467333    0.034000     0.006663
CU        0.634000    0.434000    0.034000     0.006663
CU        0.634000    0.467333    0.067333     0.006663
CU        0.667333    0.434000    0.067333     0.006663
NI        0.700667    0.467333    0.067333     0.004307
CU        0.200667    0.500667    0.067333     0.006663
CU        0.234000    0.500667    0.034000     0.006663
CU        0.234000    0.534000    0.067333     0.006663
NI        0.267333    0.500667    0.067333     0.004307
CU        0.267333    0.534000    0.034000     0.006663
CU        0.300667    0.500667    0.034000     0.006663
NI        0.300667    0.534000    0.067333     0.004307
NI        0.334000    0.500667    0.067333     0.004307
CU        0.334000    0.534000    0.034000     0.006663
CU        0.367333    0.500667    0.034000     0.006663
NI        0.367333    0.534000    0.067333     0.004307
CU        0.400667    0.500667    0.067333     0.006663
NI        0.400667    0.534000    0.034000     0.004307
CU        0.434000    0.500667    0.034000     0.006663
CU        0.434000    0.534000    0.067333     0.006663
NI        0.467333    0.500667    0.067333     0.004307
NI        0.467333    0.534000    0.034000     0.004307
NI        0.500667    0.500667    0.034000     0.004307
NI        0.500667    0.534000    0.067333     0.004307
CU        0.534000    0.500667    0.067333     0.006663
CU        0.534000    0.534000    0.034000     0.006663
NI        0.567333    0.500667    0.034000     0.004307
NI        0.567333    0.534000    0.067333     0.004307
CU        0.600667    0.500667    0.067333     0.006663
NI        0.600667    0.534000    0.034000     0.004307
CU        0.634000    0.500667    0.034000     0.006663
CU        0.634000    0.534000    0.067333     0.006663
CU        0.667333    0.500667    0.067333     0.006663
CU        0.200667    0.567333    0.067333     0.006663
CU        0.234000    0.600667    0.067333     0.006663
CU        0.267333    0.567333    0.067333     0.006663
NI        0.300667    0.567333    0.034000     0.004307
CU        0.300667    0.600667    0.067333     0.006663
CU        0.334000    0.567333    0.067333     0.006663
CU        0.334000    0.600667    0.034000     0.006663
NI        0.367333    0.567333    0.034000     0.004307
CU        0.367333    0.600667    0.067333     0.006663
NI        0.400667    0.567333    0.067333     0.004307
CU        0.400667    0.600667    0.034000     0.006663
CU        0.434000    0.567333    0.034000     0.006663
CU        0.434000    0.600667    0.067333     0.006663
NI        0.467333    0.567333    0.067333     0.004307
NI        0.467333    0.600667    0.034000     0.004307
CU        0.500667    0.567333    0.034000     0.006663
CU        0.500667    0.600667    0.067333     0.006663
NI        0.534000    0.567333    0.067333     0.004307
NI        0.534000    0.600667    0.034000     0.004307
NI        0.567333    0.567333    0.034000     0.004307
NI        0.567333    0.600667    0.067333     0.004307
NI        0.600667    0.567333    0.067333     0.004307
CU        0.634000    0.600667    0.067333     0.006663
NI        0.667333    0.567333    0.067333     0.004307
CU        0.267333    0.634000    0.067333     0.006663
NI        0.300667    0.667333    0.067333     0.004307
CU        0.334000    0.634000    0.067333     0.006663
CU        0.367333    0.634000    0.034000     0.006663
CU        0.367333    0.667333    0.067333     0.006663
NI        0.400667    0.634000    0.067333     0.004307
CU        0.434000    0.634000    0.034000     0.006663
CU        0.434000    0.667333    0.067333     0.006663
CU        0.467333    0.634000    0.067333     0.006663
NI        0.500667    0.634000    0.034000     0.004307
CU        0.500667    0.667333    0.067333     0.006663
NI        0.534000    0.634000    0.067333     0.004307
NI        0.567333    0.667333    0.067333     0.004307
CU        0.600667    0.634000    0.067333     0.006663
CU        0.400667    0.700667    0.067333     0.006663
CU        0.467333    0.700667    0.067333     0.006663
NI        0.300667    0.134000    0.134000     0.004307
CU        0.334000    0.100667    0.134000     0.006663
CU        0.334000    0.134000    0.100667     0.006663
CU        0.367333    0.134000    0.134000     0.006663
CU        0.400667    0.100667    0.134000     0.006663
CU        0.400667    0.134000    0.100667     0.006663
CU        0.434000    0.134000    0.134000     0.006663
NI        0.467333    0.100667    0.134000     0.004307
CU        0.467333    0.134000    0.100667     0.006663
NI        0.500667    0.134000    0.134000     0.004307
NI        0.534000    0.100667    0.134000     0.004307
NI        0.534000    0.134000    0.100667     0.004307
CU        0.567333    0.134000    0.134000     0.006663
CU        0.234000    0.200667    0.134000     0.006663
CU        0.267333    0.167333    0.134000     0.006663
NI        0.267333    0.200667    0.100667     0.004307
CU        0.300667    0.167333    0.100667     0.006663
CU        0.300667    0.200667    0.134000     0.006663
CU        0.334000    0.167333    0.134000     0.006663
NI        0.334000    0.200667    0.100667     0.004307
CU        0.367333    0.167333    0.100667     0.006663
NI        0.367333    0.200667    0.134000     0.004307
NI        0.400667    0.167333    0.134000     0.004307
NI        0.400667    0.200667    0.100667     0.004307
NI        0.434000    0.167333    0.100667     0.004307
CU        0.434000    0.200667    0.134000     0.006663
CU        0.467333    0.167333    0.134000     0.006663
CU        0.467333    0.200667    0.100667     0.006663
NI        0.500667    0.167333    0.100667     0.004307
NI        0.500667    0.200667    0.134000     0.004307
CU        0.534000    0.167333    0.134000     0.006663
NI        0.534000    0.200667    0.100667     0.004307
NI        0.567333    0.167333    0.100667     0.004307
CU        0.567333    0.200667    0.134000     0.006663
CU        0.600667    0.167333    0.134000     0.006663
NI        0.600667    0.200667    0.100667     0.004307
NI        0.634000    0.200667    0.134000     0.004307
CU        0.167333    0.267333    0.134000     0.006663
NI        0.200667    0.234000    0.134000     0.004307
NI        0.200667    0.267333    0.100667     0.004307
CU        0.234000    0.234000    0.100667     0.006663
NI        0.234000    0.267333    0.134000     0.004307
CU        0.267333    0.234000    0.134000     0.006663
CU        0.267333    0.267333    0.100667     0.006663
CU        0.300667    0.234000    0.100667     0.006663
CU        0.300667    0.267333    0.134000     0.006663
NI        0.334000    0.234000    0.134000     0.004307
CU        0.334000    0.267333    0.100667     0.006663
CU        0.367333    0.234000    0.100667     0.006663
NI        0.367333    0.267333    0.134000     0.004307
NI        0.400667    0.234000    0.134000     0.004307
NI        0.400667    0.267333    0.100667     0.004307
NI        0.434000    0.234000    0.100667     0.004307
CU        0.434000    0.267333    0.134000     0.006663
CU        0.467333    0.234000    0.134000     0.006663
NI        0.467333    0.267333    0.100667     0.004307
CU        0.500667    0.234000    0.100667     0.006663
NI        0.500667    0.267333    0.134000     0.004307
NI        0.534000    0.234000    0.134000     0.004307
CU        0.534000    0.267333    0.100667     0.006663
CU        0.567333    0.234000    0.100667     0.006663
CU        0.567333    0.267333    0.134000     0.006663
CU        0.600667    0.234000    0.134000     0.006663
CU        0.600667    0.267333    0.100667     0.006663
CU        0.634000    0.234000    0.100667     0.006663
NI        0.634000    0.267333    0.134000     0.004307
NI        0.667333    0.234000    0.134000     0.004307
CU        0.667333    0.267333    0.100667     0.006663
CU        0.700667    0.267333    0.134000     0.006663
NI        0.100667    0.334000    0.134000     0.004307
NI        0.134000    0.300667    0.134000     0.004307
CU        0.134000    0.334000    0.100667     0.006663
CU        0.167333    0.300667    0.100667     0.006663
NI        0.167333    0.334000    0.134000     0.004307
CU        0.200667    0.300667    0.134000     0.006663
CU        0.200667    0.334000    0.100667     0.006663
CU        0.234000    0.300667    0.100667     0.006663
CU        0.234000    0.334000    0.134000     0.006663
NI        0.267333    0.300667    0.134000     0.004307
CU        0.267333    0.334000    0.100667     0.006663
NI        0.300667    0.300667    0.100667     0.004307
NI        0.300667    0.334000    0.134000     0.004307
NI        0.334000    0.300667    0.134000     0.004307
CU        0.334000    0.334000    0.100667     0.006663
CU        0.367333    0.300667    0.100667     0.006663
CU        0.367333    0.334000    0.134000     0.006663
NI        0.400667    0.300667    0.134000     0.004307
CU        0.400667    0.334000    0.100667     0.006663
NI        0.434000    0.300667    0.100667     0.004307
NI        0.434000    0.334000    0.134000     0.004307
CU        0.467333    0.300667    0.134000     0.006663
NI        0.467333    0.334000    0.100667     0.004307
CU        0.500667    0.300667    0.100667     0.006663
NI        0.500667    0.334000    0.134000     0.004307
CU        0.534000    0.300667    0.134000     0.006663
CU        0.534000    0.334000    0.100667     0.006663
NI        0.567333    0.300667    0.100667     0.004307
NI        0.567333    0.334000    0.134000     0.004307
CU        0.600667    0.300667    0.134000     0.006663
NI        0.600667    0.334000    0.100667     0.004307
CU        0.634000    0.300667    0.100667     0.006663
CU        0.634000    0.334000    0.134000     0.006663
NI        0.667333    0.300667    0.134000     0.004307
CU        0.667333    0.334000    0.100667     0.006663
CU        0.700667    0.300667    0.100667     0.006663
NI        0.700667    0.334000    0.134000     0.004307
CU        0.734000    0.300667    0.134000     0.006663
NI        0.734000    0.334000    0.100667     0.004307
NI        0.767333    0.334000    0.134000     0.004307
CU        0.100667    0.400667    0.134000     0.006663
NI        0.134000    0.367333    0.134000     0.004307
NI        0.134000    0.400667    0.100667     0.004307
CU        0.167333    0.367333    0.100667     0.006663
CU        0.167333    0.400667    0.134000     0.006663
NI        0.200667    0.367333    0.134000     0.004307
NI        0.200667    0.400667    0.100667     0.004307
NI        0.234000    0.367333    0.100667     0.004307
CU        0.234000    0.400667    0.134000     0.006663
CU        0.267333    0.367333    0.134000     0.006663
NI        0.267333    0.400667    0.100667     0.004307
NI        0.300667    0.367333    0.100667     0.004307
NI        0.300667    0.400667    0.134000     0.004307
NI        0.334000    0.367333    0.134000     0.004307
CU        0.334000    0.400667    0.100667     0.006663
NI        0.367333    0.367333    0.100667     0.004307
NI        0.367333    0.400667    0.134000     0.004307
CU        0.400667    0.367333    0.134000     0.006663
CU        0.400667    0.400667    0.100667     0.006663
CU        0.434000    0.367333    0.100667     0.006663
CU        0.434000    0.400667    0.134000     0.006663
CU        0.467333    0.367333    0.134000     0.006663
CU        0.467333    0.400667    0.100667     0.006663
NI        0.500667    0.367333    0.100667     0.004307
CU        0.500667    0.400667    0.134000     0.006663
CU        0.534000    0.367333    0.134000     0.006663
NI        0.534000    0.400667    0.100667     0.004307
NI        0.567333    0.367333    0.100667     0.004307
CU        0.567333    0.400667    0.134000     0.006663
CU        0.600667    0.367333    0.134000     0.006663
CU        0.600667    0.400667    0.100667     0.006663
CU        0.634000    0.367333    0.100667     0.006663
CU        0.634000    0.400667    0.134000     0.006663
NI        0.667333    0.367333    0.134000     0.004307
NI        0.667333    0.400667    0.100667     0.004307
NI        0.700667    0.367333    0.100667     0.004307
NI        0.700667    0.400667    0.134000     0.004307
CU        0.734000    0.367333    0.134000     0.006663
NI        0.734000    0.400667    0.100667     0.004307
NI        0.767333    0.400667    0.134000     0.004307
CU        0.100667    0.467333    0.134000     0.006663
CU        0.134000    0.434000    0.134000     0.006663
NI        0.134000    0.467333    0.100667     0.004307
CU        0.167333    0.434000    0.100667     0.006663
NI        0.167333    0.467333    0.134000     0.004307
NI        0.200667    0.434000    0.134000     0.004307
NI        0.200667    0.467333    0.100667     0.004307
CU        0.234000    0.434000    0.100667     0.006663
CU        0.234000    0.467333    0.134000     0.006663
CU        0.267333    0.434000    0.134000     0.006663
NI        0.267333    0.467333    0.100667     0.004307
NI        0.300667    0.434000    0.100667     0.004307
NI        0.300667    0.467333    0.134000     0.004307
NI        0.334000    0.434000    0.134000     0.004307
CU        0.334000    0.467333    0.100667     0.006663
CU        0.367333    0.434000    0.100667     0.006663
CU        0.367333    0.467333    0.134000     0.006663
NI        0.400667    0.434000    0.134000     0.004307
CU        0.400667    0.467333    0.100667     0.006663
NI        0.434000    0.434000    0.100667     0.004307
NI        0.434000    0.467333    0.134000     0.004307
CU        0.467333    0.434000    0.134000     0.006663
NI        0.467333    0.467333    0.100667     0.004307
CU        0.500667    0.434000    0.100667     0.006663
CU        0.500667    0.467333    0.134000     0.006663
CU        0.534000    0.434000    0.134000     0.006663
CU        0.534000    0.467333    0.100667     0.006663
CU        0.567333    0.434000    0.100667     0.006663
NI        0.567333    0.467333    0.134000     0.004307
NI        0.600667    0.434000    0.134000     0.004307
NI        0.600667    0.467333    0.100667     0.004307
NI        0.634000    0.434000    0.100667     0.004307
CU        0.634000    0.467333    0.134000     0.006663
NI        0.667333    0.434000    0.134000     0.004307
CU        0.667333    0.467333    0.100667     0.006663
NI        0.700667    0.434000    0.100667     0.004307
CU        0.700667    0.467333    0.134000     0.006663
NI        0.734000    0.434000    0.134000     0.004307
CU        0.734000    0.467333    0.100667     0.006663
CU        0.767333    0.467333    0.134000     0.006663
CU        0.100667    0.534000    0.134000     0.006663
NI        0.134000    0.500667    0.134000     0.004307
NI        0.134000    0.534000    0.100667     0.004307
NI        0.167333    0.500667    0.100667     0.004307
NI        0.167333    0.534000    0.134000     0.004307
NI        0.200667    0.500667    0.134000     0.004307
CU        0.200667    0.534000    0.100667     0.006663
CU        0.234000    0.500667    0.100667     0.006663
CU        0.234000    0.534000    0.134000     0.006663
CU        0.267333    0.500667    0.134000     0.006663
NI        0.267333    0.534000    0.100667     0.004307
CU        0.300667    0.500667    0.100667     0.006663
NI        0.300667    0.534000    0.134000     0.004307
CU        0.334000    0.500667    0.134000     0.006663
CU        0.334000    0.534000    0.100667     0.006663
CU        0.367333    0.500667    0.100667     0.006663
NI        0.367333    0.534000    0.134000     0.004307
CU        0.400667    0.500667    0.134000     0.006663
CU        0.400667    0.534000    0.100667     0.006663
CU        0.434000    0.500667    0.100667     0.006663
CU        0.434000    0.534000    0.134000     0.006663
NI        0.467333    0.500667    0.134000     0.004307
CU        0.467333    0.534000    0.100667     0.006663
CU        0.500667    0.500667    0.100667     0.006663
NI        0.500667    0.534000    0.134000     0.004307
CU        0.534000    0.500667    0.134000     0.006663
NI        0.534000    0.534000    0.100667     0.004307
NI        0.567333    0.500667    0.100667     0.004307
CU        0.567333    0.534000    0.134000     0.006663
CU        0.600667    0.500667    0.134000     0.006663
CU        0.600667    0.534000    0.100667     0.006663
CU        0.634000    0.500667    0.100667     0.006663
CU        0.634000    0.534000    0.134000     0.006663
CU        0.667333    0.500667    0.134000     0.006663
CU        0.667333    0.534000    0.100667     0.006663
NI        0.700667    0.500667    0.100667     0.004307
NI        0.700667    0.534000    0.134000     0.004307
CU        0.734000    0.500667    0.134000     0.006663
NI        0.734000    0.534000    0.100667     0.004307
CU        0.767333    0.534000    0.134000     0.006663
NI        0.134000    0.567333    0.134000     0.004307
CU        0.167333    0.567333    0.100667     0.006663
NI        0.167333    0.600667    0.134000     0.004307
CU        0.200667    0.567333    0.134000     0.006663
NI        0.200667    0.600667    0.100667     0.004307
CU        0.234000    0.567333    0.100667     0.006663
CU        0.234000    0.600667    0.134000     0.006663
NI        0.267333    0.567333    0.134000     0.004307
CU        0.267333    0.600667    0.100667     0.006663
NI        0.300667    0.567333    0.100667     0.004307
NI        0.300667    0.600667    0.134000     0.004307
CU        0.334000    0.567333    0.134000     0.006663
NI        0.334000    0.600667    0.100667     0.004307
CU        0.367333    0.567333    0.100667     0.006663
CU        0.367333    0.600667    0.134000     0.006663
CU        0.400667    0.567333    0.134000     0.006663
NI        0.400667    0.600667    0.100667     0.004307
NI        0.434000    0.567333    0.100667     0.004307
NI        0.434000    0.600667    0.134000     0.004307
CU        0.467333    0.567333    0.134000     0.006663
NI        0.467333    0.600667    0.100667     0.004307
NI        0.500667    0.567333    0.100667     0.004307
CU        0.500667    0.600667    0.134000     0.006663
NI        0.534000    0.567333    0.134000     0.004307
CU        0.534000    0.600667    0.100667     0.006663
NI        0.567333    0.567333    0.100667     0.004307
NI        0.567333    0.600667    0.134000     0.004307
NI        0.600667    0.567333    0.134000     0.004307
NI        0.600667    0.600667    0.100667     0.004307
CU        0.634000    0.567333    0.100667     0.006663
CU        0.634000    0.600667    0.134000     0.006663
CU        0.667333    0.567333    0.134000     0.006663
CU        0.667333    0.600667    0.100667     0.006663
NI        0.700667    0.567333    0.100667     0.004307
CU        0.700667    0.600667    0.134000     0.006663
CU        0.734000    0.567333    0.134000     0.006663
CU        0.200667    0.634000    0.134000     0.006663
NI        0.234000    0.634000    0.100667     0.004307
CU        0.234000    0.667333    0.134000     0.006663
NI        0.267333    0.634000    0.134000     0.004307
CU        0.267333    0.667333    0.100667     0.006663
NI        0.300667    0.634000    0.100667     0.004307
NI        0.300667    0.667333    0.134000     0.004307
CU        0.334000    0.634000    0.134000     0.006663
NI        0.334000    0.667333    0.100667     0.004307
CU        0.367333    0.634000    0.100667     0.006663
NI        0.367333    0.667333    0.134000     0.004307
NI        0.400667    0.634000    0.134000     0.004307
CU        0.400667    0.667333    0.100667     0.006663
NI        0.434000    0.634000    0.100667     0.004307
CU        0.434000    0.667333    0.134000     0.006663
NI        0.467333    0.634000    0.134000     0.004307
CU        0.467333    0.667333    0.100667     0.006663
NI        0.500667    0.634000    0.100667     0.004307
NI        0.500667    0.667333    0.134000     0.004307
NI        0.534000    0.634000    0.134000     0.004307
CU        0.534000    0.667333    0.100667     0.006663
NI        0.567333    0.634000    0.100667     0.004307
CU        0.567333    0.667333    0.134000     0.006663
CU        0.600667    0.634000    0.134000     0.006663
NI        0.600667    0.667333    0.100667     0.004307
NI        0.634000    0.634000    0.100667     0.004307
CU        0.634000    0.667333    0.134000     0.006663
CU        0.667333    0.634000    0.134000     0.006663
NI        0.267333    0.700667    0.134000     0.004307
NI        0.300667    0.700667    0.100667     0.004307
NI        0.300667    0.734000    0.134000     0.004307
NI        0.334000    0.700667    0.134000     0.004307
CU        0.334000    0.734000    0.100667     0.006663
CU        0.367333    0.700667    0.100667     0.006663
NI        0.367333    0.734000    0.134000     0.004307
NI        0.400667    0.700667    0.134000     0.004307
CU        0.400667    0.734000    0.100667     0.006663
CU        0.434000    0.700667    0.100667     0.006663
CU        0.434000    0.734000    0.134000     0.006663
NI        0.467333    0.700667    0.134000     0.004307
NI        0.467333    0.734000    0.100667     0.004307
NI        0.500667    0.700667    0.100667     0.004307
NI        0.500667    0.734000    0.134000     0.004307
CU        0.534000    0.700667    0.134000     0.006663
CU        0.534000    0.734000    0.100667     0.006663
NI        0.567333    0.700667    0.100667     0.004307
CU        0.567333    0.734000    0.134000     0.006663
CU        0.600667    0.700667    0.134000     0.006663
NI        0.334000    0.767333    0.134000     0.004307
NI        0.400667    0.767333    0.134000     0.004307
CU        0.467333    0.767333    0.134000     0.006663
CU        0.534000    0.767333    0.134000     0.006663
CU        0.300667    0.067333    0.200667     0.006663
CU        0.367333    0.067333    0.200667     0.006663
CU        0.400667    0.067333    0.167333     0.006663
NI        0.434000    0.067333    0.200667     0.004307
CU        0.467333    0.067333    0.167333     0.006663
NI        0.500667    0.067333    0.200667     0.004307
CU        0.567333    0.067333    0.200667     0.006663
NI        0.234000    0.134000    0.200667     0.004307
NI        0.267333    0.100667    0.200667     0.004307
NI        0.267333    0.134000    0.167333     0.004307
CU        0.300667    0.100667    0.167333     0.006663
CU        0.300667    0.134000    0.200667     0.006663
NI        0.334000    0.100667    0.200667     0.004307
CU        0.334000    0.134000    0.167333     0.006663
CU        0.367333    0.100667    0.167333     0.006663
NI        0.367333    0.134000    0.200667     0.004307
NI        0.400667    0.100667    0.200667     0.004307
NI        0.400667    0.134000    0.167333     0.004307
CU        0.434000    0.100667    0.167333     0.006663
CU        0.434000    0.134000    0.200667     0.006663
CU        0.467333    0.100667    0.200667     0.006663
CU        0.467333    0.134000    0.167333     0.006663
NI        0.500667    0.100667    0.167333     0.004307
NI        0.500667    0.134000    0.200667     0.004307
NI        0.534000    0.100667    0.200667     0.004307
NI        0.534000    0.134000    0.167333     0.004307
NI        0.567333    0.100667    0.167333     0.004307
CU        0.567333    0.134000    0.200667     0.006663
CU        0.600667    0.100667    0.200667     0.006663
NI        0.600667    0.134000    0.167333     0.004307
NI        0.634000    0.134000    0.200667     0.004307
CU        0.167333    0.200667    0.200667     0.006663
NI        0.200667    0.167333    0.200667     0.004307
CU        0.200667    0.200667    0.167333     0.006663
NI        0.234000    0.167333    0.167333     0.004307
CU        0.234000    0.200667    0.200667     0.006663
CU        0.267333    0.167333    0.200667     0.006663
CU        0.267333    0.200667    0.167333     0.006663
CU        0.300667    0.167333    0.167333     0.006663
CU        0.300667    0.200667    0.200667     0.006663
CU        0.334000    0.167333    0.200667     0.006663
CU        0.334000    0.200667    0.167333     0.006663
NI        0.367333    0.167333    0.167333     0.004307
NI        0.367333    0.200667    0.200667     0.004307
CU        0.400667    0.167333    0.200667     0.006663
NI        0.400667    0.200667    0.167333     0.004307
NI        0.434000    0.167333    0.167333     0.004307
CU        0.434000    0.200667    0.200667     0.006663
NI        0.467333    0.167333    0.200667     0.004307
CU        0.467333    0.200667    0.167333     0.006663
CU        0.500667    0.167333    0.167333     0.006663
CU        0.500667    0.200667    0.200667     0.006663
CU        0.534000    0.167333    0.200667     0.006663
CU        0.534000    0.200667    0.167333     0.006663
CU        0.567333    0.167333    0.167333     0.006663
NI        0.567333    0.200667    0.200667     0.004307
NI        0.600667    0.167333    0.200667     0.004307
CU        0.600667    0.200667    0.167333     0.006663
CU        0.634000    0.167333    0.167333     0.006663
NI        0.634000    0.200667    0.200667     0.004307
NI        0.667333    0.167333    0.200667     0.004307
NI        0.667333    0.200667    0.167333     0.004307
NI        0.700667    0.200667    0.200667     0.004307
CU        0.100667    0.267333    0.200667     0.006663
NI        0.134000    0.234000    0.200667     0.004307
NI        0.134000    0.267333    0.167333     0.004307
CU        0.167333    0.234000    0.167333     0.006663
CU        0.167333    0.267333    0.200667     0.006663
CU        0.200667    0.234000    0.200667     0.006663
NI        0.200667    0.267333    0.167333     0.004307
CU        0.234000    0.234000    0.167333     0.006663
CU        0.234000    0.267333    0.200667     0.006663
NI        0.267333    0.234000    0.200667     0.004307
NI        0.267333    0.267333    0.167333     0.004307
NI        0.300667    0.234000    0.167333     0.004307
NI        0.300667    0.267333    0.200667     0.004307
CU        0.334000    0.234000    0.200667     0.006663
CU        0.334000    0.267333    0.167333     0.006663
CU        0.367333    0.234000    0.167333     0.006663
CU        0.367333    0.267333    0.200667     0.006663
CU        0.400667    0.234000    0.200667     0.006663
CU        0.400667    0.267333    0.167333     0.006663
NI        0.434000    0.234000    0.167333     0.004307
NI        0.434000    0.267333    0.200667     0.004307
NI        0.467333    0.234000    0.200667     0.004307
NI        0.467333    0.267333    0.167333     0.004307
CU        0.500667    0.234000    0.167333     0.006663
NI        0.500667    0.267333    0.200667     0.004307
NI        0.534000    0.234000    0.200667     0.004307
NI        0.534000    0.267333    0.167333     0.004307
CU        0.567333    0.234000    0.167333     0.006663
CU        0.567333    0.267333    0.200667     0.006663
CU        0.600667    0.234000    0.200667     0.006663
NI        0.600667    0.267333    0.167333     0.004307
NI        0.634000    0.234000    0.167333     0.004307
NI        0.634000    0.267333    0.200667     0.004307
NI        0.667333    0.234000    0.200667     0.004307
NI        0.667333    0.267333    0.167333     0.004307
CU        0.700667    0.234000    0.167333     0.006663
CU        0.700667    0.267333    0.200667     0.006663
NI        0.734000    0.234000    0.200667     0.004307
CU        0.734000    0.267333    0.167333     0.006663
CU        0.767333    0.267333    0.200667     0.006663
NI        0.067333    0.300667    0.200667     0.004307
CU        0.100667    0.300667    0.167333     0.006663
NI        0.100667    0.334000    0.200667     0.004307
CU        0.134000    0.300667    0.200667     0.006663
CU        0.134000    0.334000    0.167333     0.006663
CU        0.167333    0.300667    0.167333     0.006663
CU        0.167333    0.334000    0.200667     0.006663
CU        0.200667    0.300667    0.200667     0.006663
NI        0.200667    0.334000    0.167333     0.004307
NI        0.234000    0.300667    0.167333     0.004307
CU        0.234000    0.334000    0.200667     0.006663
NI        0.267333    0.300667    0.200667     0.004307
NI        0.267333    0.334000    0.167333     0.004307
CU        0.300667    0.300667    0.167333     0.006663
CU        0.300667    0.334000    0.200667     0.006663
NI        0.334000    0.300667    0.200667     0.004307
CU        0.334000    0.334000    0.167333     0.006663
NI        0.367333    0.300667    0.167333     0.004307
CU        0.367333    0.334000    0.200667     0.006663
NI        0.400667    0.300667    0.200667     0.004307
CU        0.400667    0.334000    0.167333     0.006663
NI        0.434000    0.300667    0.167333     0.004307
NI        0.434000    0.334000    0.200667     0.004307
CU        0.467333    0.300667    0.200667     0.006663
CU        0.467333    0.334000    0.167333     0.006663
NI        0.500667    0.300667    0.167333     0.004307
CU        0.500667    0.334000    0.200667     0.006663
CU        0.534000    0.300667    0.200667     0.006663
NI        0.534000    0.334000    0.167333     0.004307
CU        0.567333    0.300667    0.167333     0.006663
CU        0.567333    0.334000    0.200667     0.006663
CU        0.600667    0.300667    0.200667     0.006663
NI        0.600667    0.334000    0.167333     0.004307
CU        0.634000    0.300667    0.167333     0.006663
CU        0.634000    0.334000    0.200667     0.006663
CU        0.667333    0.300667    0.200667     0.006663
CU        0.667333    0.334000    0.167333     0.006663
CU        0.700667    0.300667    0.167333     0.006663
CU        0.700667    0.334000    0.200667     0.006663
CU        0.734000    0.300667    0.200667     0.006663
CU        0.734000    0.334000    0.167333     0.006663
NI        0.767333    0.300667    0.167333     0.004307
NI        0.767333    0.334000    0.200667     0.004307
CU        0.800667    0.300667    0.200667     0.006663
NI        0.067333    0.367333    0.200667     0.004307
CU        0.067333    0.400667    0.167333     0.006663
NI        0.100667    0.367333    0.167333     0.004307
CU        0.100667    0.400667    0.200667     0.006663
CU        0.134000    0.367333    0.200667     0.006663
CU        0.134000    0.400667    0.167333     0.006663
CU        0.167333    0.367333    0.167333     0.006663
CU        0.167333    0.400667    0.200667     0.006663
CU        0.200667    0.367333    0.200667     0.006663
CU        0.200667    0.400667    0.167333     0.006663
NI        0.234000    0.367333    0.167333     0.004307
NI        0.234000    0.400667    0.200667     0.004307
NI        0.267333    0.367333    0.200667     0.004307
CU        0.267333    0.400667    0.167333     0.006663
NI        0.300667    0.367333    0.167333     0.004307
CU        0.300667    0.400667    0.200667     0.006663
NI        0.334000    0.367333    0.200667     0.004307
CU        0.334000    0.400667    0.167333     0.006663
CU        0.367333    0.367333    0.167333     0.006663
NI        0.367333    0.400667    0.200667     0.004307
CU        0.400667    0.367333    0.200667     0.006663
CU        0.400667    0.400667    0.167333     0.006663
NI        0.434000    0.367333    0.167333     0.004307
NI        0.434000    0.400667    0.200667     0.004307
CU        0.467333    0.367333    0.200667     0.006663
CU        0.467333    0.400667    0.167333     0.006663
NI        0.500667    0.367333    0.167333     0.004307
CU        0.500667    0.400667    0.200667     0.006663
CU        0.534000    0.367333    0.200667     0.006663
CU        0.534000    0.400667    0.167333     0.006663
CU        0.567333    0.367333    0.167333     0.006663
NI        0.567333    0.400667    0.200667     0.004307
CU        0.600667    0.367333    0.200667     0.006663
CU        0.600667    0.400667    0.167333     0.006663
NI        0.634000    0.367333    0.167333     0.004307
CU        0.634000    0.400667    0.200667     0.006663
NI        0.667333    0.367333    0.200667     0.004307
CU        0.667333    0.400667    0.167333     0.006663
CU        0.700667    0.367333    0.167333     0.006663
NI        0.700667    0.400667    0.200667     0.004307
NI        0.734000    0.367333    0.200667     0.004307
NI        0.734000    0.400667    0.167333     0.004307
NI        0.767333    0.367333    0.167333     0.004307
NI        0.767333    0.400667    0.200667     0.004307
CU        0.800667    0.367333    0.200667     0.006663
NI        0.800667    0.400667    0.167333     0.004307
CU        0.067333    0.434000    0.200667     0.006663
CU        0.067333    0.467333    0.167333     0.006663
CU        0.100667    0.434000    0.167333     0.006663
CU        0.100667    0.467333    0.200667     0.006663
CU        0.134000    0.434000    0.200667     0.006663
CU        0.134000    0.467333    0.167333     0.006663
CU        0.167333    0.434000    0.167333     0.006663
CU        0.167333    0.467333    0.200667     0.006663
NI        0.200667    0.434000    0.200667     0.004307
NI        0.200667    0.467333    0.167333     0.004307
CU        0.234000    0.434000    0.167333     0.006663
NI        0.234000    0.467333    0.200667     0.004307
NI        0.267333    0.434000    0.200667     0.004307
CU        0.267333    0.467333    0.167333     0.006663
NI        0.300667    0.434000    0.167333     0.004307
NI        0.300667    0.467333    0.200667     0.004307
NI        0.334000    0.434000    0.200667     0.004307
NI        0.334000    0.467333    0.167333     0.004307
NI        0.367333    0.434000    0.167333     0.004307
NI        0.367333    0.467333    0.200667     0.004307
CU        0.400667    0.434000    0.200667     0.006663
CU        0.400667    0.467333    0.167333     0.006663
NI        0.434000    0.434000    0.167333     0.004307
CU        0.434000    0.467333    0.200667     0.006663
NI        0.467333    0.434000    0.200667     0.004307
CU        0.467333    0.467333    0.167333     0.006663
CU        0.500667    0.434000    0.167333     0.006663
NI        0.500667    0.467333    0.200667     0.004307
CU        0.534000    0.434000    0.200667     0.006663
CU        0.534000    0.467333    0.167333     0.006663
CU        0.567333    0.434000    0.167333     0.006663
CU        0.567333    0.467333    0.200667     0.006663
CU        0.600667    0.434000    0.200667     0.006663
CU        0.600667    0.467333    0.167333     0.006663
CU        0.634000    0.434000    0.167333     0.006663
CU        0.634000    0.467333    0.200667     0.006663
CU        0.667333    0.434000    0.200667     0.006663
CU        0.667333    0.467333    0.167333     0.006663
CU        0.700667    0.434000    0.167333     0.006663
NI        0.700667    0.467333    0.200667     0.004307
CU        0.734000    0.434000    0.200667     0.006663
NI        0.734000    0.467333    0.167333     0.004307
NI        0.767333    0.434000    0.167333     0.004307
NI        0.767333    0.467333    0.200667     0.004307
CU        0.800667    0.434000    0.200667     0.006663
NI        0.800667    0.467333    0.167333     0.004307
CU        0.067333    0.500667    0.200667     0.006663
CU        0.100667    0.500667    0.167333     0.006663
NI        0.100667    0.534000    0.200667     0.004307
CU        0.134000    0.500667    0.200667     0.006663
CU        0.134000    0.534000    0.167333     0.006663
CU        0.167333    0.500667    0.167333     0.006663
CU        0.167333    0.534000    0.200667     0.006663
CU        0.200667    0.500667    0.200667     0.006663
CU        0.200667    0.534000    0.167333     0.006663
CU        0.234000    0.500667    0.167333     0.006663
NI        0.234000    0.534000    0.200667     0.004307
NI        0.267333    0.500667    0.200667     0.004307
NI        0.267333    0.534000    0.167333     0.004307
CU        0.300667    0.500667    0.167333     0.006663
NI        0.300667    0.534000    0.200667     0.004307
CU        0.334000    0.500667    0.200667     0.006663
NI        0.334000    0.534000    0.167333     0.004307
NI        0.367333    0.500667    0.167333     0.004307
NI        0.367333    0.534000    0.200667     0.004307
NI        0.400667    0.500667    0.200667     0.004307
CU        0.400667    0.534000    0.167333     0.006663
CU        0.434000    0.500667    0.167333     0.006663
CU        0.434000    0.534000    0.200667     0.006663
NI        0.467333    0.500667    0.200667     0.004307
NI        0.467333    0.534000    0.167333     0.004307
NI        0.500667    0.500667    0.167333     0.004307
NI        0.500667    0.534000    0.200667     0.004307
NI        0.534000    0.500667    0.200667     0.004307
NI        0.534000    0.534000    0.167333     0.004307
CU        0.567333    0.500667    0.167333     0.006663
CU        0.567333    0.534000    0.200667     0.006663
NI        0.600667    0.500667    0.200667     0.004307
NI        0.600667    0.534000    0.167333     0.004307
NI        0.634000    0.500667    0.167333     0.004307
CU        0.634000    0.534000    0.200667     0.006663
NI        0.667333    0.500667    0.200667     0.004307
NI        0.667333    0.534000    0.167333     0.004307
NI        0.700667    0.500667    0.167333     0.004307
NI        0.700667    0.534000    0.200667     0.004307
CU        0.734000    0.500667    0.200667     0.006663
CU        0.734000    0.534000    0.167333     0.006663
NI        0.767333    0.500667    0.167333     0.004307
NI        0.767333    0.534000    0.200667     0.004307
CU        0.800667    0.500667    0.200667     0.006663
CU        0.067333    0.567333    0.200667     0.006663
NI        0.100667    0.567333    0.167333     0.004307
CU        0.100667    0.600667    0.200667     0.006663
NI        0.134000    0.567333    0.200667     0.004307
CU        0.134000    0.600667    0.167333     0.006663
CU        0.167333    0.567333    0.167333     0.006663
NI        0.167333    0.600667    0.200667     0.004307
CU        0.200667    0.567333    0.200667     0.006663
NI        0.200667    0.600667    0.167333     0.004307
NI        0.234000    0.567333    0.167333     0.004307
NI        0.234000    0.600667    0.200667     0.004307
NI        0.267333    0.567333    0.200667     0.004307
NI        0.267333    0.600667    0.167333     0.004307
CU        0.300667    0.567333    0.167333     0.006663
CU        0.300667    0.600667    0.200667     0.006663
CU        0.334000    0.567333    0.200667     0.006663
CU        0.334000    0.600667    0.167333     0.006663
CU        0.367333    0.567333    0.167333     0.006663
CU        0.367333    0.600667    0.200667     0.006663
NI        0.400667    0.567333    0.200667     0.004307
NI        0.400667    0.600667    0.167333     0.004307
NI        0.434000    0.567333    0.167333     0.004307
CU        0.434000    0.600667    0.200667     0.006663
CU        0.467333    0.567333    0.200667     0.006663
NI        0.467333    0.600667    0.167333     0.004307
CU        0.500667    0.567333    0.167333     0.006663
CU        0.500667    0.600667    0.200667     0.006663
NI        0.534000    0.567333    0.200667     0.004307
CU        0.534000    0.600667    0.167333     0.006663
NI        0.567333    0.567333    0.167333     0.004307
CU        0.567333    0.600667    0.200667     0.006663
CU        0.600667    0.567333    0.200667     0.006663
NI        0.600667    0.600667    0.167333     0.004307
CU        0.634000    0.567333    0.167333     0.006663
NI        0.634000    0.600667    0.200667     0.004307
CU        0.667333    0.567333    0.200667     0.006663
CU        0.667333    0.600667    0.167333     0.006663
CU        0.700667    0.567333    0.167333     0.006663
CU        0.700667    0.600667    0.200667     0.006663
NI        0.734000    0.567333    0.200667     0.004307
CU        0.734000    0.600667    0.167333     0.006663
NI        0.767333    0.567333    0.167333     0.004307
NI        0.767333    0.600667    0.200667     0.004307
CU        0.800667    0.567333    0.200667     0.006663
NI        0.134000    0.634000    0.200667     0.004307
NI        0.167333    0.634000    0.167333     0.004307
NI        0.167333    0.667333    0.200667     0.004307
CU        0.200667    0.634000    0.200667     0.006663
CU        0.200667    0.667333    0.167333     0.006663
CU        0.234000    0.634000    0.167333     0.006663
CU        0.234000    0.667333    0.200667     0.006663
NI        0.267333    0.634000    0.200667     0.004307
NI        0.267333    0.667333    0.167333     0.004307
NI        0.300667    0.634000    0.167333     0.004307
CU        0.300667    0.667333    0.200667     0.006663
NI        0.334000    0.634000    0.200667     0.004307
NI        0.334000    0.667333    0.167333     0.004307
CU        0.367333    0.634000    0.167333     0.006663
NI        0.367333    0.667333    0.200667     0.004307
CU        0.400667    0.634000    0.200667     0.006663
CU        0.400667    0.667333    0.167333     0.006663
CU        0.434000    0.634000    0.167333     0.006663
NI        0.434000    0.667333    0.200667     0.004307
NI        0.467333    0.634000    0.200667     0.004307
CU        0.467333    0.667333    0.167333     0.006663
CU        0.500667    0.634000    0.167333     0.006663
NI        0.500667    0.667333    0.200667     0.004307
NI        0.534000    0.634000    0.200667     0.004307
CU        0.534000    0.667333    0.167333     0.006663
NI        0.567333    0.634000    0.167333     0.004307
NI        0.567333    0.667333    0.200667     0.004307
CU        0.600667    0.634000    0.200667     0.006663
NI        0.600667    0.667333    0.167333     0.004307
CU        0.634000    0.634000    0.167333     0.006663
CU        0.634000    0.667333    0.200667     0.006663
NI        0.667333    0.634000    0.200667     0.004307
CU        0.667333    0.667333    0.167333     0.006663
CU        0.700667    0.634000    0.167333     0.006663
CU        0.700667    0.667333    0.200667     0.006663
CU        0.734000    0.634000    0.200667     0.006663
CU        0.200667    0.700667    0.200667     0.006663
NI        0.234000    0.700667    0.167333     0.004307
CU        0.234000    0.734000    0.200667     0.006663
NI        0.267333    0.700667    0.200667     0.004307
NI        0.267333    0.734000    0.167333     0.004307
CU        0.300667    0.700667    0.167333     0.006663
CU        0.300667    0.734000    0.200667     0.006663
NI        0.334000    0.700667    0.200667     0.004307
CU        0.334000    0.734000    0.167333     0.006663
NI        0.367333    0.700667    0.167333     0.004307
CU        0.367333    0.734000    0.200667     0.006663
NI        0.400667    0.700667    0.200667     0.004307
CU        0.400667    0.734000    0.167333     0.006663
CU        0.434000    0.700667    0.167333     0.006663
NI        0.434000    0.734000    0.200667     0.004307
NI        0.467333    0.700667    0.200667     0.004307
CU        0.467333    0.734000    0.167333     0.006663
CU        0.500667    0.700667    0.167333     0.006663
NI        0.500667    0.734000    0.200667     0.004307
NI        0.534000    0.700667    0.200667     0.004307
CU        0.534000    0.734000    0.167333     0.006663
CU        0.567333    0.700667    0.167333     0.006663
CU        0.567333    0.734000    0.200667     0.006663
CU        0.600667    0.700667    0.200667     0.006663
NI        0.600667    0.734000    0.167333     0.004307
NI        0.634000    0.700667    0.167333     0.004307
NI        0.634000    0.734000    0.200667     0.004307
NI        0.667333    0.700667    0.200667     0.004307
CU        0.267333    0.767333    0.200667     0.006663
NI        0.300667    0.767333    0.167333     0.004307
CU        0.300667    0.800667    0.200667     0.006663
CU        0.334000    0.767333    0.200667     0.006663
NI        0.367333    0.767333    0.167333     0.004307
CU        0.367333    0.800667    0.200667     0.006663
NI        0.400667    0.767333    0.200667     0.004307
NI        0.400667    0.800667    0.167333     0.004307
NI        0.434000    0.767333    0.167333     0.004307
NI        0.434000    0.800667    0.200667     0.004307
CU        0.467333    0.767333    0.200667     0.006663
CU        0.467333    0.800667    0.167333     0.006663
NI        0.500667    0.767333    0.167333     0.004307
CU        0.500667    0.800667    0.200667     0.006663
CU        0.534000    0.767333    0.200667     0.006663
CU        0.567333    0.767333    0.167333     0.006663
NI        0.567333    0.800667    0.200667     0.004307
CU        0.600667    0.767333    0.200667     0.006663
NI        0.234000    0.067333    0.267333     0.004307
NI        0.267333    0.067333    0.234000     0.004307
NI        0.300667    0.067333    0.267333     0.004307
NI        0.334000    0.034000    0.267333     0.004307
NI        0.334000    0.067333    0.234000     0.004307
CU        0.367333    0.034000    0.234000     0.006663
CU        0.367333    0.067333    0.267333     0.006663
CU        0.400667    0.034000    0.267333     0.006663
NI        0.400667    0.067333    0.234000     0.004307
NI        0.434000    0.034000    0.234000     0.004307
NI        0.434000    0.067333    0.267333     0.004307
CU        0.467333    0.034000    0.267333     0.006663
CU        0.467333    0.067333    0.234000     0.006663
CU        0.500667    0.034000    0.234000     0.006663
CU        0.500667    0.067333    0.267333     0.006663
NI        0.534000    0.034000    0.267333     0.004307
NI        0.534000    0.067333    0.234000     0.004307
NI        0.567333    0.067333    0.267333     0.004307
NI        0.600667    0.067333    0.234000     0.004307
NI        0.634000    0.067333    0.267333     0.004307
CU        0.167333    0.134000    0.267333     0.006663
CU        0.200667    0.100667    0.267333     0.006663
CU        0.200667    0.134000    0.234000     0.006663
CU        0.234000    0.100667    0.234000     0.006663
NI        0.234000    0.134000    0.267333     0.004307
CU        0.267333    0.100667    0.267333     0.006663
CU        0.267333    0.134000    0.234000     0.006663
NI        0.300667    0.100667    0.234000     0.004307
CU        0.300667    0.134000    0.267333     0.006663
CU        0.334000    0.100667    0.267333     0.006663
NI        0.334000    0.134000    0.234000     0.004307
CU        0.367333    0.100667    0.234000     0.006663
CU        0.367333    0.134000    0.267333     0.006663
CU        0.400667    0.100667    0.267333     0.006663
NI        0.400667    0.134000    0.234000     0.004307
CU        0.434000    0.100667    0.234000     0.006663
CU        0.434000    0.134000    0.267333     0.006663
CU        0.467333    0.100667    0.267333     0.006663
CU        0.467333    0.134000    0.234000     0.006663
CU        0.500667    0.100667    0.234000     0.006663
CU        0.500667    0.134000    0.267333     0.006663
NI        0.534000    0.100667    0.267333     0.004307
CU        0.534000    0.134000    0.234000     0.006663
CU        0.567333    0.100667    0.234000     0.006663
NI        0.567333    0.134000    0.267333     0.004307
NI        0.600667    0.100667    0.267333     0.004307
NI        0.600667    0.134000    0.234000     0.004307
CU        0.634000    0.100667    0.234000     0.006663
NI        0.634000    0.134000    0.267333     0.004307
NI        0.667333    0.100667    0.267333     0.004307
CU        0.667333    0.134000    0.234000     0.006663
CU        0.700667    0.134000    0.267333     0.006663
NI        0.100667    0.200667    0.267333     0.004307
CU        0.134000    0.167333    0.267333     0.006663
NI        0.134000    0.200667    0.234000     0.004307
NI        0.167333    0.167333    0.234000     0.004307
CU        0.167333    0.200667    0.267333     0.006663
CU        0.200667    0.167333    0.267333     0.006663
NI        0.200667    0.200667    0.234000     0.004307
CU        0.234000    0.167333    0.234000     0.006663
NI        0.234000    0.200667    0.267333     0.004307
NI        0.267333    0.167333    0.267333     0.004307
NI        0.267333    0.200667    0.234000     0.004307
CU        0.300667    0.167333    0.234000     0.006663
NI        0.300667    0.200667    0.267333     0.004307
NI        0.334000    0.167333    0.267333     0.004307
CU        0.334000    0.200667    0.234000     0.006663
CU        0.367333    0.167333    0.234000     0.006663
NI        0.367333    0.200667    0.267333     0.004307
NI        0.400667    0.167333    0.267333     0.004307
NI        0.400667    0.200667    0.234000     0.004307
NI        0.434000    0.167333    0.234000     0.004307
CU        0.434000    0.200667    0.267333     0.006663
NI        0.467333    0.167333    0.267333     0.004307
CU        0.467333    0.200667    0.234000     0.006663
CU        0.500667    0.167333    0.234000     0.006663
CU        0.500667    0.200667    0.267333     0.006663
CU        0.534000    0.167333    0.267333     0.006663
NI        0.534000    0.200667    0.234000     0.004307
NI        0.567333    0.167333    0.234000     0.004307
NI        0.567333    0.200667    0.267333     0.004307
NI        0.600667    0.167333    0.267333     0.004307
CU        0.600667    0.200667    0.234000     0.006663
NI        0.634000    0.167333    0.234000     0.004307
CU        0.634000    0.200667    0.267333     0.006663
NI        0.667333    0.167333    0.267333     0.004307
CU        0.667333    0.200667    0.234000     0.006663
NI        0.700667    0.167333    0.234000     0.004307
CU        0.700667    0.200667    0.267333     0.006663
NI        0.734000    0.167333    0.267333     0.004307
NI        0.734000    0.200667    0.234000     0.004307
CU        0.767333    0.200667    0.267333     0.006663
CU        0.067333    0.234000    0.267333     0.006663
NI        0.067333    0.267333    0.234000     0.004307
CU        0.100667    0.234000    0.234000     0.006663
CU        0.100667    0.267333    0.267333     0.006663
CU        0.134000    0.234000    0.267333     0.006663
NI        0.134000    0.267333    0.234000     0.004307
CU        0.167333    0.234000    0.234000     0.006663
NI        0.167333    0.267333    0.267333     0.004307
CU        0.200667    0.234000    0.267333     0.006663
NI        0.200667    0.267333    0.234000     0.004307
NI        0.234000    0.234000    0.234000     0.004307
NI        0.234000    0.267333    0.267333     0.004307
CU        0.267333    0.234000    0.267333     0.006663
NI        0.267333    0.267333    0.234000     0.004307
CU        0.300667    0.234000    0.234000     0.006663
NI        0.300667    0.267333    0.267333     0.004307
CU        0.334000    0.234000    0.267333     0.006663
NI        0.334000    0.267333    0.234000     0.004307
CU        0.367333    0.234000    0.234000     0.006663
NI        0.367333    0.267333    0.267333     0.004307
NI        0.400667    0.234000    0.267333     0.004307
NI        0.400667    0.267333    0.234000     0.004307
CU        0.434000    0.234000    0.234000     0.006663
NI        0.434000    0.267333    0.267333     0.004307
NI        0.467333    0.234000    0.267333     0.004307
CU        0.467333    0.267333    0.234000     0.006663
CU        0.500667    0.234000    0.234000     0.006663
NI        0.500667    0.267333    0.267333     0.004307
NI        0.534000    0.234000    0.267333     0.004307
NI        0.534000    0.267333    0.234000     0.004307
CU        0.567333    0.234000    0.234000     0.006663
NI        0.567333    0.267333    0.267333     0.004307
NI        0.600667    0.234000    0.267333     0.004307
CU        0.600667    0.267333    0.234000     0.006663
NI        0.634000    0.234000    0.234000     0.004307
NI        0.634000    0.267333    0.267333     0.004307
CU        0.667333    0.234000    0.267333     0.006663
CU        0.667333    0.267333    0.234000     0.006663
NI        0.700667    0.234000    0.234000     0.004307
NI        0.700667    0.267333    0.267333     0.004307
NI        0.734000    0.234000    0.267333     0.004307
NI        0.734000    0.267333    0.234000     0.004307
CU        0.767333    0.234000    0.234000     0.006663
CU        0.767333    0.267333    0.267333     0.006663
NI        0.800667    0.234000    0.267333     0.004307
CU        0.800667    0.267333    0.234000     0.006663
NI        0.034000    0.334000    0.267333     0.004307
CU        0.067333    0.300667    0.267333     0.006663
CU        0.067333    0.334000    0.234000     0.006663
CU        0.100667    0.300667    0.234000     0.006663
CU        0.100667    0.334000    0.267333     0.006663
NI        0.134000    0.300667    0.267333     0.004307
NI        0.134000    0.334000    0.234000     0.004307
CU        0.167333    0.300667    0.234000     0.006663
CU        0.167333    0.334000    0.267333     0.006663
CU        0.200667    0.300667    0.267333     0.006663
NI        0.200667    0.334000    0.234000     0.004307
CU        0.234000    0.300667    0.234000     0.006663
NI        0.234000    0.334000    0.267333     0.004307
NI        0.267333    0.300667    0.267333     0.004307
NI        0.267333    0.334000    0.234000     0.004307
NI        0.300667    0.300667    0.234000     0.004307
CU        0.300667    0.334000    0.267333     0.006663
CU        0.334000    0.300667    0.267333     0.006663
CU        0.334000    0.334000    0.234000     0.006663
NI        0.367333    0.300667    0.234000     0.004307
CU        0.367333    0.334000    0.267333     0.006663
CU        0.400667    0.300667    0.267333     0.006663
NI        0.400667    0.334000    0.234000     0.004307
CU        0.434000    0.300667    0.234000     0.006663
CU        0.434000    0.334000    0.267333     0.006663
NI        0.467333    0.300667    0.267333     0.004307
CU        0.467333    0.334000    0.234000     0.006663
NI        0.500667    0.300667    0.234000     0.004307
NI        0.500667    0.334000    0.267333     0.004307
NI        0.534000    0.300667    0.267333     0.004307
NI        0.534000    0.334000    0.234000     0.004307
NI        0.567333    0.300667    0.234000     0.004307
NI        0.567333    0.334000    0.267333     0.004307
NI        0.600667    0.300667    0.267333     0.004307
CU        0.600667    0.334000    0.234000     0.006663
CU        0.634000    0.300667    0.234000     0.006663
NI        0.634000    0.334000    0.267333     0.004307
CU        0.667333    0.300667    0.267333     0.006663
CU        0.667333    0.334000    0.234000     0.006663
NI        0.700667    0.300667    0.234000     0.004307
CU        0.700667    0.334000    0.267333     0.006663
CU        0.734000    0.300667    0.267333     0.006663
NI        0.734000    0.334000    0.234000     0.004307
NI        0.767333    0.300667    0.234000     0.004307
CU        0.767333    0.334000    0.267333     0.006663
CU        0.800667    0.300667    0.267333     0.006663
CU        0.800667    0.334000    0.234000     0.006663
CU        0.834000    0.334000    0.267333     0.006663
NI        0.034000    0.367333    0.234000     0.004307
NI        0.034000    0.400667    0.267333     0.004307
CU        0.067333    0.367333    0.267333     0.006663
CU        0.067333    0.400667    0.234000     0.006663
NI        0.100667    0.367333    0.234000     0.004307
CU        0.100667    0.400667    0.267333     0.006663
NI        0.134000    0.367333    0.267333     0.004307
NI        0.134000    0.400667    0.234000     0.004307
CU        0.167333    0.367333    0.234000     0.006663
CU        0.167333    0.400667    0.267333     0.006663
NI        0.200667    0.367333    0.267333     0.004307
NI        0.200667    0.400667    0.234000     0.004307
CU        0.234000    0.367333    0.234000     0.006663
CU        0.234000    0.400667    0.267333     0.006663
NI        0.267333    0.367333    0.267333     0.004307
NI        0.267333    0.400667    0.234000     0.004307
NI        0.300667    0.367333    0.234000     0.004307
CU        0.300667    0.400667    0.267333     0.006663
NI        0.334000    0.367333    0.267333     0.004307
NI        0.334000    0.400667    0.234000     0.004307
CU        0.367333    0.367333    0.234000     0.006663
NI        0.367333    0.400667    0.267333     0.004307
NI        0.400667    0.367333    0.267333     0.004307
NI        0.400667    0.400667    0.234000     0.004307
NI        0.434000    0.367333    0.234000     0.004307
CU        0.434000    0.400667    0.267333     0.006663
NI        0.467333    0.367333    0.267333     0.004307
NI        0.467333    0.400667    0.234000     0.004307
NI        0.500667    0.367333    0.234000     0.004307
NI        0.500667    0.400667    0.267333     0.004307
NI        0.534000    0.367333    0.267333     0.004307
CU        0.534000    0.400667    0.234000     0.006663
NI        0.567333    0.367333    0.234000     0.004307
NI        0.567333    0.400667    0.267333     0.004307
CU        0.600667    0.367333    0.267333     0.006663
NI        0.600667    0.400667    0.234000     0.004307
NI        0.634000    0.367333    0.234000     0.004307
NI        0.634000    0.400667    0.267333     0.004307
NI        0.667333    0.367333    0.267333     0.004307
CU        0.667333    0.400667    0.234000     0.006663
CU        0.700667    0.367333    0.234000     0.006663
NI        0.700667    0.400667    0.267333     0.004307
NI        0.734000    0.367333    0.267333     0.004307
CU        0.734000    0.400667    0.234000     0.006663
NI        0.767333    0.367333    0.234000     0.004307
CU        0.767333    0.400667    0.267333     0.006663
CU        0.800667    0.367333    0.267333     0.006663
NI        0.800667    0.400667    0.234000     0.004307
CU        0.834000    0.367333    0.234000     0.006663
CU        0.834000    0.400667    0.267333     0.006663
CU        0.034000    0.434000    0.234000     0.006663
CU        0.034000    0.467333    0.267333     0.006663
CU        0.067333    0.434000    0.267333     0.006663
NI        0.067333    0.467333    0.234000     0.004307
CU        0.100667    0.434000    0.234000     0.006663
NI        0.100667    0.467333    0.267333     0.004307
NI        0.134000    0.434000    0.267333     0.004307
CU        0.134000    0.467333    0.234000     0.006663
NI        0.167333    0.434000    0.234000     0.004307
CU        0.167333    0.467333    0.267333     0.006663
CU        0.200667    0.434000    0.267333     0.006663
NI        0.200667    0.467333    0.234000     0.004307
NI        0.234000    0.434000    0.234000     0.004307
NI        0.234000    0.467333    0.267333     0.004307
NI        0.267333    0.434000    0.267333     0.004307
CU        0.267333    0.467333    0.234000     0.006663
NI        0.300667    0.434000    0.234000     0.004307
NI        0.300667    0.467333    0.267333     0.004307
NI        0.334000    0.434000    0.267333     0.004307
CU        0.334000    0.467333    0.234000     0.006663
CU        0.367333    0.434000    0.234000     0.006663
NI        0.367333    0.467333    0.267333     0.004307
NI        0.400667    0.434000    0.267333     0.004307
CU        0.400667    0.467333    0.234000     0.006663
NI        0.434000    0.434000    0.234000     0.004307
NI        0.434000    0.467333    0.267333     0.004307
CU        0.467333    0.434000    0.267333     0.006663
CU        0.467333    0.467333    0.234000     0.006663
CU        0.500667    0.434000    0.234000     0.006663
CU        0.500667    0.467333    0.267333     0.006663
CU        0.534000    0.434000    0.267333     0.006663
CU        0.534000    0.467333    0.234000     0.006663
CU        0.567333    0.434000    0.234000     0.006663
CU        0.567333    0.467333    0.267333     0.006663
CU        0.600667    0.434000    0.267333     0.006663
CU        0.600667    0.467333    0.234000     0.006663
NI        0.634000    0.434000    0.234000     0.004307
CU        0.634000    0.467333    0.267333     0.006663
CU        0.667333    0.434000    0.267333     0.006663
NI        0.667333    0.467333    0.234000     0.004307
NI        0.700667    0.434000    0.234000     0.004307
NI        0.700667    0.467333    0.267333     0.004307
NI        0.734000    0.434000    0.267333     0.004307
CU        0.734000    0.467333    0.234000     0.006663
NI        0.767333    0.434000    0.234000     0.004307
CU        0.767333    0.467333    0.267333     0.006663
CU        0.800667    0.434000    0.267333     0.006663
NI        0.800667    0.467333    0.234000     0.004307
CU        0.834000    0.434000    0.234000     0.006663
CU        0.834000    0.467333    0.267333     0.006663
CU        0.034000    0.500667    0.234000     0.006663
CU        0.034000    0.534000    0.267333     0.006663
CU        0.067333    0.500667    0.267333     0.006663
NI        0.067333    0.534000    0.234000     0.004307
CU        0.100667    0.500667    0.234000     0.006663
CU        0.100667    0.534000    0.267333     0.006663
NI        0.134000    0.500667    0.267333     0.004307
CU        0.134000    0.534000    0.234000     0.006663
NI        0.167333    0.500667    0.234000     0.004307
NI        0.167333    0.534000    0.267333     0.004307
NI        0.200667    0.500667    0.267333     0.004307
CU        0.200667    0.534000    0.234000     0.006663
NI        0.234000    0.500667    0.234000     0.004307
NI        0.234000    0.534000    0.267333     0.004307
CU        0.267333    0.500667    0.267333     0.006663
CU        0.267333    0.534000    0.234000     0.006663
NI        0.300667    0.500667    0.234000     0.004307
NI        0.300667    0.534000    0.267333     0.004307
CU        0.334000    0.500667    0.267333     0.006663
CU        0.334000    0.534000    0.234000     0.006663
CU        0.367333    0.500667    0.234000     0.006663
CU        0.367333    0.534000    0.267333     0.006663
NI        0.400667    0.500667    0.267333     0.004307
CU        0.400667    0.534000    0.234000     0.006663
NI        0.434000    0.500667    0.234000     0.004307
CU        0.434000    0.534000    0.267333     0.006663
CU        0.467333    0.500667    0.267333     0.006663
CU        0.467333    0.534000    0.234000     0.006663
CU        0.500667    0.500667    0.234000     0.006663
CU        0.500667    0.534000    0.267333     0.006663
CU        0.534000    0.500667    0.267333     0.006663
CU        0.534000    0.534000    0.234000     0.006663
NI        0.567333    0.500667    0.234000     0.004307
CU        0.567333    0.534000    0.267333     0.006663
CU        0.600667    0.500667    0.267333     0.006663
CU        0.600667    0.534000    0.234000     0.006663
NI        0.634000    0.500667    0.234000     0.004307
CU        0.634000    0.534000    0.267333     0.006663
NI        0.667333    0.500667    0.267333     0.004307
CU        0.667333    0.534000    0.234000     0.006663
CU        0.700667    0.500667    0.234000     0.006663
CU        0.700667    0.534000    0.267333     0.006663
CU        0.734000    0.500667    0.267333     0.006663
NI        0.734000    0.534000    0.234000     0.004307
NI        0.767333    0.500667    0.234000     0.004307
NI        0.767333    0.534000    0.267333     0.004307
NI        0.800667    0.500667    0.267333     0.004307
NI        0.800667    0.534000    0.234000     0.004307
NI        0.834000    0.500667    0.234000     0.004307
NI        0.834000    0.534000    0.267333     0.004307
NI        0.067333    0.567333    0.267333     0.004307
CU        0.067333    0.600667    0.234000     0.006663
CU        0.100667    0.567333    0.234000     0.006663
CU        0.100667    0.600667    0.267333     0.006663
CU        0.134000    0.567333    0.267333     0.006663
NI        0.134000    0.600667    0.234000     0.004307
NI        0.167333    0.567333    0.234000     0.004307
CU        0.167333    0.600667    0.267333     0.006663
NI        0.200667    0.567333    0.267333     0.004307
NI        0.200667    0.600667    0.234000     0.004307
NI        0.234000    0.567333    0.234000     0.004307
CU        0.234000    0.600667    0.267333     0.006663
CU        0.267333    0.567333    0.267333     0.006663
CU        0.267333    0.600667    0.234000     0.006663
CU        0.300667    0.567333    0.234000     0.006663
CU        0.300667    0.600667    0.267333     0.006663
CU        0.334000    0.567333    0.267333     0.006663
CU        0.334000    0.600667    0.234000     0.006663
CU        0.367333    0.567333    0.234000     0.006663
NI        0.367333    0.600667    0.267333     0.004307
CU        0.400667    0.567333    0.267333     0.006663
CU        0.400667    0.600667    0.234000     0.006663
CU        0.434000    0.567333    0.234000     0.006663
NI        0.434000    0.600667    0.267333     0.004307
CU        0.467333    0.567333    0.267333     0.006663
NI        0.467333    0.600667    0.234000     0.004307
CU        0.500667    0.567333    0.234000     0.006663
NI        0.500667    0.600667    0.267333     0.004307
CU        0.534000    0.567333    0.267333     0.006663
NI        0.534000    0.600667    0.234000     0.004307
CU        0.567333    0.567333    0.234000     0.006663
CU        0.567333    0.600667    0.267333     0.006663
CU        0.600667    0.567333    0.267333     0.006663
NI        0.600667    0.600667    0.234000     0.004307
CU        0.634000    0.567333    0.234000     0.006663
CU        0.634000    0.600667    0.267333     0.006663
NI        0.667333    0.567333    0.267333     0.004307
CU        0.667333    0.600667    0.234000     0.006663
NI        0.700667    0.567333    0.234000     0.004307
CU        0.700667    0.600667    0.267333     0.006663
CU        0.734000    0.567333    0.267333     0.006663
CU        0.734000    0.600667    0.234000     0.006663
NI        0.767333    0.567333    0.234000     0.004307
CU        0.767333    0.600667    0.267333     0.006663
CU        0.800667    0.567333    0.267333     0.006663
NI        0.800667    0.600667    0.234000     0.004307
CU        0.067333    0.634000    0.267333     0.006663
CU        0.100667    0.634000    0.234000     0.006663
NI        0.100667    0.667333    0.267333     0.004307
CU        0.134000    0.634000    0.267333     0.006663
CU        0.134000    0.667333    0.234000     0.006663
CU        0.167333    0.634000    0.234000     0.006663
NI        0.167333    0.667333    0.267333     0.004307
CU        0.200667    0.634000    0.267333     0.006663
CU        0.200667    0.667333    0.234000     0.006663
CU        0.234000    0.634000    0.234000     0.006663
NI        0.234000    0.667333    0.267333     0.004307
CU        0.267333    0.634000    0.267333     0.006663
CU        0.267333    0.667333    0.234000     0.006663
NI        0.300667    0.634000    0.234000     0.004307
CU        0.300667    0.667333    0.267333     0.006663
CU        0.334000    0.634000    0.267333     0.006663
CU        0.334000    0.667333    0.234000     0.006663
NI        0.367333    0.634000    0.234000     0.004307
NI        0.367333    0.667333    0.267333     0.004307
NI        0.400667    0.634000    0.267333     0.004307
CU        0.400667    0.667333    0.234000     0.006663
CU        0.434000    0.634000    0.234000     0.006663
CU        0.434000    0.667333    0.267333     0.006663
CU        0.467333    0.634000    0.267333     0.006663
CU        0.467333    0.667333    0.234000     0.006663
NI        0.500667    0.634000    0.234000     0.004307
CU        0.500667    0.667333    0.267333     0.006663
CU        0.534000    0.634000    0.267333     0.006663
CU        0.534000    0.667333    0.234000     0.006663
NI        0.567333    0.634000    0.234000     0.004307
NI        0.567333    0.667333    0.267333     0.004307
CU        0.600667    0.634000    0.267333     0.006663
CU        0.600667    0.667333    0.234000     0.006663
NI        0.634000    0.634000    0.234000     0.004307
NI        0.634000    0.667333    0.267333     0.004307
NI        0.667333    0.634000    0.267333     0.004307
NI        0.667333    0.667333    0.234000     0.004307
NI        0.700667    0.634000    0.234000     0.004307
CU        0.700667    0.667333    0.267333     0.006663
CU        0.734000    0.634000    0.267333     0.006663
NI        0.734000    0.667333    0.234000     0.004307
NI        0.767333    0.634000    0.234000     0.004307
CU        0.767333    0.667333    0.267333     0.006663
CU        0.800667    0.634000    0.267333     0.006663
NI        0.134000    0.700667    0.267333     0.004307
NI        0.167333    0.700667    0.234000     0.004307
CU        0.167333    0.734000    0.267333     0.006663
CU        0.200667    0.700667    0.267333     0.006663
CU        0.200667    0.734000    0.234000     0.006663
NI        0.234000    0.700667    0.234000     0.004307
CU        0.234000    0.734000    0.267333     0.006663
CU        0.267333    0.700667    0.267333     0.006663
CU        0.267333    0.734000    0.234000     0.006663
NI        0.300667    0.700667    0.234000     0.004307
NI        0.300667    0.734000    0.267333     0.004307
CU        0.334000    0.700667    0.267333     0.006663
CU        0.334000    0.734000    0.234000     0.006663
NI        0.367333    0.700667    0.234000     0.004307
NI        0.367333    0.734000    0.267333     0.004307
CU        0.400667    0.700667    0.267333     0.006663
NI        0.400667    0.734000    0.234000     0.004307
NI        0.434000    0.700667    0.234000     0.004307
NI        0.434000    0.734000    0.267333     0.004307
CU        0.467333    0.700667    0.267333     0.006663
CU        0.467333    0.734000    0.234000     0.006663
NI        0.500667    0.700667    0.234000     0.004307
CU        0.500667    0.734000    0.267333     0.006663
CU        0.534000    0.700667    0.267333     0.006663
NI        0.534000    0.734000    0.234000     0.004307
NI        0.567333    0.700667    0.234000     0.004307
CU        0.567333    0.734000    0.267333     0.006663
CU        0.600667    0.700667    0.267333     0.006663
CU        0.600667    0.734000    0.234000     0.006663
NI        0.634000    0.700667    0.234000     0.004307
NI        0.634000    0.734000    0.267333     0.004307
NI        0.667333    0.700667    0.267333     0.004307
NI        0.667333    0.734000    0.234000     0.004307
NI        0.700667    0.700667    0.234000     0.004307
NI        0.700667    0.734000    0.267333     0.004307
CU        0.734000    0.700667    0.267333     0.006663
CU        0.200667    0.767333    0.267333     0.006663
NI        0.234000    0.767333    0.234000     0.004307
CU        0.234000    0.800667    0.267333     0.006663
CU        0.267333    0.767333    0.267333     0.006663
NI        0.267333    0.800667    0.234000     0.004307
CU        0.300667    0.767333    0.234000     0.006663
CU        0.300667    0.800667    0.267333     0.006663
NI        0.334000    0.767333    0.267333     0.004307
CU        0.334000    0.800667    0.234000     0.006663
NI        0.367333    0.767333    0.234000     0.004307
CU        0.367333    0.800667    0.267333     0.006663
CU        0.400667    0.767333    0.267333     0.006663
NI        0.400667    0.800667    0.234000     0.004307
CU        0.434000    0.767333    0.234000     0.006663
CU        0.434000    0.800667    0.267333     0.006663
NI        0.467333    0.767333    0.267333     0.004307
NI        0.467333    0.800667    0.234000     0.004307
CU        0.500667    0.767333    0.234000     0.006663
NI        0.500667    0.800667    0.267333     0.004307
NI        0.534000    0.767333    0.267333     0.004307
NI        0.534000    0.800667    0.234000     0.004307
NI        0.567333    0.767333    0.234000     0.004307
CU        0.567333    0.800667    0.267333     0.006663
NI        0.600667    0.767333    0.267333     0.004307
NI        0.600667    0.800667    0.234000     0.004307
NI        0.634000    0.767333    0.234000     0.004307
CU        0.634000    0.800667    0.267333     0.006663
CU        0.667333    0.767333    0.267333     0.006663
NI        0.334000    0.834000    0.267333     0.004307
NI        0.367333    0.834000    0.234000     0.004307
CU        0.400667    0.834000    0.267333     0.006663
NI        0.434000    0.834000    0.234000     0.004307
NI        0.467333    0.834000    0.267333     0.004307
NI        0.500667    0.834000    0.234000     0.004307
NI        0.534000    0.834000    0.267333     0.004307
CU        0.367333    0.000667    0.334000     0.006663
NI        0.400667    0.000667    0.300667     0.004307
CU        0.434000    0.000667    0.334000     0.006663
CU        0.467333    0.000667    0.300667     0.006663
NI        0.500667    0.000667    0.334000     0.004307
NI        0.200667    0.067333    0.300667     0.004307
NI        0.234000    0.067333    0.334000     0.004307
NI        0.267333    0.034000    0.334000     0.004307
NI        0.267333    0.067333    0.300667     0.004307
CU        0.300667    0.034000    0.300667     0.006663
NI        0.300667    0.067333    0.334000     0.004307
CU        0.334000    0.034000    0.334000     0.006663
NI        0.334000    0.067333    0.300667     0.004307
NI        0.367333    0.034000    0.300667     0.004307
CU        0.367333    0.067333    0.334000     0.006663
CU        0.400667    0.034000    0.334000     0.006663
CU        0.400667    0.067333    0.300667     0.006663
CU        0.434000    0.034000    0.300667     0.006663
NI        0.434000    0.067333    0.334000     0.004307
CU        0.467333    0.034000    0.334000     0.006663
NI        0.467333    0.067333    0.300667     0.004307
CU        0.500667    0.034000    0.300667     0.006663
NI        0.500667    0.067333    0.334000     0.004307
NI        0.534000    0.034000    0.334000     0.004307
CU        0.534000    0.067333    0.300667     0.006663
CU        0.567333    0.034000    0.300667     0.006663
CU        0.567333    0.067333    0.334000     0.006663
NI        0.600667    0.034000    0.334000     0.004307
NI        0.600667    0.067333    0.300667     0.004307
CU        0.634000    0.067333    0.334000     0.006663
NI        0.667333    0.067333    0.300667     0.004307
CU        0.100667    0.134000    0.334000     0.006663
NI        0.134000    0.100667    0.334000     0.004307
NI        0.134000    0.134000    0.300667     0.004307
CU        0.167333    0.100667    0.300667     0.006663
CU        0.167333    0.134000    0.334000     0.006663
CU        0.200667    0.100667    0.334000     0.006663
CU        0.200667    0.134000    0.300667     0.006663
NI        0.234000    0.100667    0.300667     0.004307
CU        0.234000    0.134000    0.334000     0.006663
NI        0.267333    0.100667    0.334000     0.004307
NI        0.267333    0.134000    0.300667     0.004307
CU        0.300667    0.100667    0.300667     0.006663
CU        0.300667    0.134000    0.334000     0.006663
CU        0.334000    0.100667    0.334000     0.006663
CU        0.334000    0.134000    0.300667     0.006663
CU        0.367333    0.100667    0.300667     0.006663
NI        0.367333    0.134000    0.334000     0.004307
CU        0.400667    0.100667    0.334000     0.006663
CU        0.400667    0.134000    0.300667     0.006663
CU        0.434000    0.100667    0.300667     0.006663
NI        0.434000    0.134000    0.334000     0.004307
NI        0.467333    0.100667    0.334000     0.004307
CU        0.467333    0.134000    0.300667     0.006663
CU        0.500667    0.100667    0.300667     0.006663
CU        0.500667    0.134000    0.334000     0.006663
NI        0.534000    0.100667    0.334000     0.004307
CU        0.534000    0.134000    0.300667     0.006663
CU        0.567333    0.100667    0.300667     0.006663
CU        0.567333    0.134000    0.334000     0.006663
CU        0.600667    0.100667    0.334000     0.006663
CU        0.600667    0.134000    0.300667     0.006663
CU        0.634000    0.100667    0.300667     0.006663
CU        0.634000    0.134000    0.334000     0.006663
CU        0.667333    0.100667    0.334000     0.006663
NI        0.667333    0.134000    0.300667     0.004307
CU        0.700667    0.100667    0.300667     0.006663
NI        0.700667    0.134000    0.334000     0.004307
NI        0.734000    0.100667    0.334000     0.004307
NI        0.734000    0.134000    0.300667     0.004307
NI        0.767333    0.134000    0.334000     0.004307
CU        0.067333    0.200667    0.300667     0.006663
NI        0.100667    0.167333    0.300667     0.004307
NI        0.100667    0.200667    0.334000     0.004307
CU        0.134000    0.167333    0.334000     0.006663
CU        0.134000    0.200667    0.300667     0.006663
CU        0.167333    0.167333    0.300667     0.006663
CU        0.167333    0.200667    0.334000     0.006663
NI        0.200667    0.167333    0.334000     0.004307
CU        0.200667    0.200667    0.300667     0.006663
CU        0.234000    0.167333    0.300667     0.006663
CU        0.234000    0.200667    0.334000     0.006663
CU        0.267333    0.167333    0.334000     0.006663
CU        0.267333    0.200667    0.300667     0.006663
CU        0.300667    0.167333    0.300667     0.006663
NI        0.300667    0.200667    0.334000     0.004307
CU        0.334000    0.167333    0.334000     0.006663
CU        0.334000    0.200667    0.300667     0.006663
CU        0.367333    0.167333    0.300667     0.006663
CU        0.367333    0.200667    0.334000     0.006663
NI        0.400667    0.167333    0.334000     0.004307
NI        0.400667    0.200667    0.300667     0.004307
CU        0.434000    0.167333    0.300667     0.006663
NI        0.434000    0.200667    0.334000     0.004307
NI        0.467333    0.167333    0.334000     0.004307
CU        0.467333    0.200667    0.300667     0.006663
NI        0.500667    0.167333    0.300667     0.004307
CU        0.500667    0.200667    0.334000     0.006663
NI        0.534000    0.167333    0.334000     0.004307
CU        0.534000    0.200667    0.300667     0.006663
NI        0.567333    0.167333    0.300667     0.004307
NI        0.567333    0.200667    0.334000     0.004307
NI        0.600667    0.167333    0.334000     0.004307
CU        0.600667    0.200667    0.300667     0.006663
CU        0.634000    0.167333    0.300667     0.006663
CU        0.634000    0.200667    0.334000     0.006663
NI        0.667333    0.167333    0.334000     0.004307
CU        0.667333    0.200667    0.300667     0.006663
CU        0.700667    0.167333    0.300667     0.006663
CU        0.700667    0.200667    0.334000     0.006663
NI        0.734000    0.167333    0.334000     0.004307
CU        0.734000    0.200667    0.300667     0.006663
CU        0.767333    0.167333    0.300667     0.006663
NI        0.767333    0.200667    0.334000     0.004307
CU        0.800667    0.200667    0.300667     0.006663
CU        0.034000    0.267333    0.334000     0.006663
CU        0.067333    0.234000    0.334000     0.006663
CU        0.067333    0.267333    0.300667     0.006663
CU        0.100667    0.234000    0.300667     0.006663
CU        0.100667    0.267333    0.334000     0.006663
NI        0.134000    0.234000    0.334000     0.004307
CU        0.134000    0.267333    0.300667     0.006663
NI        0.167333    0.234000    0.300667     0.004307
CU        0.167333    0.267333    0.334000     0.006663
NI        0.200667    0.234000    0.334000     0.004307
NI        0.200667    0.267333    0.300667     0.004307
NI        0.234000    0.234000    0.300667     0.004307
NI        0.234000    0.267333    0.334000     0.004307
CU        0.267333    0.234000    0.334000     0.006663
CU        0.267333    0.267333    0.300667     0.006663
NI        0.300667    0.234000    0.300667     0.004307
NI        0.300667    0.267333    0.334000     0.004307
NI        0.334000    0.234000    0.334000     0.004307
NI        0.334000    0.267333    0.300667     0.004307
CU        0.367333    0.234000    0.300667     0.006663
NI        0.367333    0.267333    0.334000     0.004307
NI        0.400667    0.234000    0.334000     0.004307
CU        0.400667    0.267333    0.300667     0.006663
NI        0.434000    0.234000    0.300667     0.004307
NI        0.434000    0.267333    0.334000     0.004307
CU        0.467333    0.234000    0.334000     0.006663
NI        0.467333    0.267333    0.300667     0.004307
NI        0.500667    0.234000    0.300667     0.004307
CU        0.500667    0.267333    0.334000     0.006663
NI        0.534000    0.234000    0.334000     0.004307
CU        0.534000    0.267333    0.300667     0.006663
CU        0.567333    0.234000    0.300667     0.006663
CU        0.567333    0.267333    0.334000     0.006663
CU        0.600667    0.234000    0.334000     0.006663
CU        0.600667    0.267333    0.300667     0.006663
NI        0.634000    0.234000    0.300667     0.004307
NI        0.634000    0.267333    0.334000     0.004307
NI        0.667333    0.234000    0.334000     0.004307
NI        0.667333    0.267333    0.300667     0.004307
NI        0.700667    0.234000    0.300667     0.004307
CU        0.700667    0.267333    0.334000     0.006663
CU        0.734000    0.234000    0.334000     0.006663
CU        0.734000    0.267333    0.300667     0.006663
CU        0.767333    0.234000    0.300667     0.006663
CU        0.767333    0.267333    0.334000     0.006663
CU        0.800667    0.234000    0.334000     0.006663
CU        0.800667    0.267333    0.300667     0.006663
CU        0.834000    0.267333    0.334000     0.006663
NI        0.034000    0.300667    0.300667     0.004307
CU        0.034000    0.334000    0.334000     0.006663
NI        0.067333    0.300667    0.334000     0.004307
NI        0.067333    0.334000    0.300667     0.004307
CU        0.100667    0.300667    0.300667     0.006663
NI        0.100667    0.334000    0.334000     0.004307
NI        0.134000    0.300667    0.334000     0.004307
CU        0.134000    0.334000    0.300667     0.006663
CU        0.167333    0.300667    0.300667     0.006663
NI        0.167333    0.334000    0.334000     0.004307
NI        0.200667    0.300667    0.334000     0.004307
CU        0.200667    0.334000    0.300667     0.006663
CU        0.234000    0.300667    0.300667     0.006663
CU        0.234000    0.334000    0.334000     0.006663
NI        0.267333    0.300667    0.334000     0.004307
CU        0.267333    0.334000    0.300667     0.006663
CU        0.300667    0.300667    0.300667     0.006663
CU        0.300667    0.334000    0.334000     0.006663
NI        0.334000    0.300667    0.334000     0.004307
CU        0.334000    0.334000    0.300667     0.006663
CU        0.367333    0.300667    0.300667     0.006663
CU        0.367333    0.334000    0.334000     0.006663
CU        0.400667    0.300667    0.334000     0.006663
CU        0.400667    0.334000    0.300667     0.006663
CU        0.434000    0.300667    0.300667     0.006663
CU        0.434000    0.334000    0.334000     0.006663
CU        0.467333    0.300667    0.334000     0.006663
CU        0.467333    0.334000    0.300667     0.006663
NI        0.500667    0.300667    0.300667     0.004307
CU        0.500667    0.334000    0.334000     0.006663
NI        0.534000    0.300667    0.334000     0.004307
CU        0.534000    0.334000    0.300667     0.006663
NI        0.567333    0.300667    0.300667     0.004307
NI        0.567333    0.334000    0.334000     0.004307
NI        0.600667    0.300667    0.334000     0.004307
NI        0.600667    0.334000    0.300667     0.004307
CU        0.634000    0.300667    0.300667     0.006663
NI        0.634000    0.334000    0.334000     0.004307
CU        0.667333    0.300667    0.334000     0.006663
CU        0.667333    0.334000    0.300667     0.006663
CU        0.700667    0.300667    0.300667     0.006663
NI        0.700667    0.334000    0.334000     0.004307
CU        0.734000    0.300667    0.334000     0.006663
CU        0.734000    0.334000    0.300667     0.006663
CU        0.767333    0.300667    0.300667     0.006663
NI        0.767333    0.334000    0.334000     0.004307
CU        0.800667    0.300667    0.334000     0.006663
NI        0.800667    0.334000    0.300667     0.004307
NI        0.834000    0.300667    0.300667     0.004307
CU        0.834000    0.334000    0.334000     0.006663
NI        0.000667    0.367333    0.334000     0.004307
NI        0.000667    0.400667    0.300667     0.004307
NI        0.034000    0.367333    0.300667     0.004307
NI        0.034000    0.400667    0.334000     0.004307
CU        0.067333    0.367333    0.334000     0.006663
CU        0.067333    0.400667    0.300667     0.006663
CU        0.100667    0.367333    0.300667     0.006663
NI        0.100667    0.400667    0.334000     0.004307
NI        0.134000    0.367333    0.334000     0.004307
CU        0.134000    0.400667    0.300667     0.006663
CU        0.167333    0.367333    0.300667     0.006663
CU        0.167333    0.400667    0.334000     0.006663
CU        0.200667    0.367333    0.334000     0.006663
CU        0.200667    0.400667    0.300667     0.006663
NI        0.234000    0.367333    0.300667     0.004307
NI        0.234000    0.400667    0.334000     0.004307
CU        0.267333    0.367333    0.334000     0.006663
CU        0.267333    0.400667    0.300667     0.006663
CU        0.300667    0.367333    0.300667     0.006663
CU        0.300667    0.400667    0.334000     0.006663
NI        0.334000    0.367333    0.334000     0.004307
NI        0.334000    0.400667    0.300667     0.004307
NI        0.367333    0.367333    0.300667     0.004307
CU        0.367333    0.400667    0.334000     0.006663
CU        0.400667    0.367333    0.334000     0.006663
CU        0.400667    0.400667    0.300667     0.006663
CU        0.434000    0.367333    0.300667     0.006663
CU        0.434000    0.400667    0.334000     0.006663
NI        0.467333    0.367333    0.334000     0.004307
CU        0.467333    0.400667    0.300667     0.006663
CU        0.500667    0.367333    0.300667     0.006663
CU        0.500667    0.400667    0.334000     0.006663
NI        0.534000    0.367333    0.334000     0.004307
NI        0.534000    0.400667    0.300667     0.004307
CU        0.567333    0.367333    0.300667     0.006663
CU        0.567333    0.400667    0.334000     0.006663
CU        0.600667    0.367333    0.334000     0.006663
CU        0.600667    0.400667    0.300667     0.006663
CU        0.634000    0.367333    0.300667     0.006663
NI        0.634000    0.400667    0.334000     0.004307
CU        0.667333    0.367333    0.334000     0.006663
NI        0.667333    0.400667    0.300667     0.004307
CU        0.700667    0.367333    0.300667     0.006663
NI        0.700667    0.400667    0.334000     0.004307
CU        0.734000    0.367333    0.334000     0.006663
NI        0.734000    0.400667    0.300667     0.004307
NI        0.767333    0.367333    0.300667     0.004307
CU        0.767333    0.400667    0.334000     0.006663
NI        0.800667    0.367333    0.334000     0.004307
CU        0.800667    0.400667    0.300667     0.006663
CU        0.834000    0.367333    0.300667     0.006663
CU        0.834000    0.400667    0.334000     0.006663
CU        0.867333    0.367333    0.334000     0.006663
CU        0.867333    0.400667    0.300667     0.006663
CU        0.000667    0.434000    0.334000     0.006663
NI        0.000667    0.467333    0.300667     0.004307
NI        0.034000    0.434000    0.300667     0.004307
NI        0.034000    0.467333    0.334000     0.004307
NI        0.067333    0.434000    0.334000     0.004307
CU        0.067333    0.467333    0.300667     0.006663
CU        0.100667    0.434000    0.300667     0.006663
NI        0.100667    0.467333    0.334000     0.004307
NI        0.134000    0.434000    0.334000     0.004307
NI        0.134000    0.467333    0.300667     0.004307
NI        0.167333    0.434000    0.300667     0.004307
NI        0.167333    0.467333    0.334000     0.004307
NI        0.200667    0.434000    0.334000     0.004307
CU        0.200667    0.467333    0.300667     0.006663
CU        0.234000    0.434000    0.300667     0.006663
NI        0.234000    0.467333    0.334000     0.004307
CU        0.267333    0.434000    0.334000     0.006663
NI        0.267333    0.467333    0.300667     0.004307
CU        0.300667    0.434000    0.300667     0.006663
NI        0.300667    0.467333    0.334000     0.004307
NI        0.334000    0.434000    0.334000     0.004307
NI        0.334000    0.467333    0.300667     0.004307
NI        0.367333    0.434000    0.300667     0.004307
CU        0.367333    0.467333    0.334000     0.006663
NI        0.400667    0.434000    0.334000     0.004307
CU        0.400667    0.467333    0.300667     0.006663
CU        0.434000    0.434000    0.300667     0.006663
CU        0.434000    0.467333    0.334000     0.006663
NI        0.467333    0.434000    0.334000     0.004307
NI        0.467333    0.467333    0.300667     0.004307
NI        0.500667    0.434000    0.300667     0.004307
CU        0.500667    0.467333    0.334000     0.006663
NI        0.534000    0.434000    0.334000     0.004307
CU        0.534000    0.467333    0.300667     0.006663
CU        0.567333    0.434000    0.300667     0.006663
NI        0.567333    0.467333    0.334000     0.004307
CU        0.600667    0.434000    0.334000     0.006663
NI        0.600667    0.467333    0.300667     0.004307
CU        0.634000    0.434000    0.300667     0.006663
CU        0.634000    0.467333    0.334000     0.006663
NI        0.667333    0.434000    0.334000     0.004307
NI        0.667333    0.467333    0.300667     0.004307
NI        0.700667    0.434000    0.300667     0.004307
CU        0.700667    0.467333    0.334000     0.006663
CU        0.734000    0.434000    0.334000     0.006663
CU        0.734000    0.467333    0.300667     0.006663
NI        0.767333    0.434000    0.300667     0.004307
CU        0.767333    0.467333    0.334000     0.006663
CU        0.800667    0.434000    0.334000     0.006663
NI        0.800667    0.467333    0.300667     0.004307
CU        0.834000    0.434000    0.300667     0.006663
NI        0.834000    0.467333    0.334000     0.004307
CU        0.867333    0.434000    0.334000     0.006663
NI        0.867333    0.467333    0.300667     0.004307
NI        0.000667    0.500667    0.334000     0.004307
NI        0.034000    0.500667    0.300667     0.004307
NI        0.034000    0.534000    0.334000     0.004307
CU        0.067333    0.500667    0.334000     0.006663
NI        0.067333    0.534000    0.300667     0.004307
NI        0.100667    0.500667    0.300667     0.004307
CU        0.100667    0.534000    0.334000     0.006663
NI        0.134000    0.500667    0.334000     0.004307
NI        0.134000    0.534000    0.300667     0.004307
NI        0.167333    0.500667    0.300667     0.004307
NI        0.167333    0.534000    0.334000     0.004307
CU        0.200667    0.500667    0.334000     0.006663
CU        0.200667    0.534000    0.300667     0.006663
NI        0.234000    0.500667    0.300667     0.004307
NI        0.234000    0.534000    0.334000     0.004307
NI        0.267333    0.500667    0.334000     0.004307
NI        0.267333    0.534000    0.300667     0.004307
CU        0.300667    0.500667    0.300667     0.006663
NI        0.300667    0.534000    0.334000     0.004307
CU        0.334000    0.500667    0.334000     0.006663
CU        0.334000    0.534000    0.300667     0.006663
CU        0.367333    0.500667    0.300667     0.006663
NI        0.367333    0.534000    0.334000     0.004307
NI        0.400667    0.500667    0.334000     0.004307
CU        0.400667    0.534000    0.300667     0.006663
NI        0.434000    0.500667    0.300667     0.004307
NI        0.434000    0.534000    0.334000     0.004307
CU        0.467333    0.500667    0.334000     0.006663
NI        0.467333    0.534000    0.300667     0.004307
CU        0.500667    0.500667    0.300667     0.006663
CU        0.500667    0.534000    0.334000     0.006663
CU        0.534000    0.500667    0.334000     0.006663
CU        0.534000    0.534000    0.300667     0.006663
NI        0.567333    0.500667    0.300667     0.004307
CU        0.567333    0.534000    0.334000     0.006663
NI        0.600667    0.500667    0.334000     0.004307
NI        0.600667    0.534000    0.300667     0.004307
NI        0.634000    0.500667    0.300667     0.004307
CU        0.634000    0.534000    0.334000     0.006663
CU        0.667333    0.500667    0.334000     0.006663
NI        0.667333    0.534000    0.300667     0.004307
NI        0.700667    0.500667    0.300667     0.004307
CU        0.700667    0.534000    0.334000     0.006663
CU        0.734000    0.500667    0.334000     0.006663
NI        0.734000    0.534000    0.300667     0.004307
NI        0.767333    0.500667    0.300667     0.004307
NI        0.767333    0.534000    0.334000     0.004307
NI        0.800667    0.500667    0.334000     0.004307
CU        0.800667    0.534000    0.300667     0.006663
NI        0.834000    0.500667    0.300667     0.004307
CU        0.834000    0.534000    0.334000     0.006663
CU        0.867333    0.500667    0.334000     0.006663
NI        0.034000    0.567333    0.300667     0.004307
CU        0.034000    0.600667    0.334000     0.006663
CU        0.067333    0.567333    0.334000     0.006663
CU        0.067333    0.600667    0.300667     0.006663
NI        0.100667    0.567333    0.300667     0.004307
NI        0.100667    0.600667    0.334000     0.004307
CU        0.134000    0.567333    0.334000     0.006663
CU        0.134000    0.600667    0.300667     0.006663
CU        0.167333    0.567333    0.300667     0.006663
NI        0.167333    0.600667    0.334000     0.004307
CU        0.200667    0.567333    0.334000     0.006663
CU        0.200667    0.600667    0.300667     0.006663
NI        0.234000    0.567333    0.300667     0.004307
NI        0.234000    0.600667    0.334000     0.004307
NI        0.267333    0.567333    0.334000     0.004307
NI        0.267333    0.600667    0.300667     0.004307
CU        0.300667    0.567333    0.300667     0.006663
NI        0.300667    0.600667    0.334000     0.004307
NI        0.334000    0.567333    0.334000     0.004307
CU        0.334000    0.600667    0.300667     0.006663
CU        0.367333    0.567333    0.300667     0.006663
CU        0.367333    0.600667    0.334000     0.006663
CU        0.400667    0.567333    0.334000     0.006663
CU        0.400667    0.600667    0.300667     0.006663
CU        0.434000    0.567333    0.300667     0.006663
CU        0.434000    0.600667    0.334000     0.006663
NI        0.467333    0.567333    0.334000     0.004307
NI        0.467333    0.600667    0.300667     0.004307
CU        0.500667    0.567333    0.300667     0.006663
CU        0.500667    0.600667    0.334000     0.006663
CU        0.534000    0.567333    0.334000     0.006663
NI        0.534000    0.600667    0.300667     0.004307
NI        0.567333    0.567333    0.300667     0.004307
NI        0.567333    0.600667    0.334000     0.004307
NI        0.600667    0.567333    0.334000     0.004307
CU        0.600667    0.600667    0.300667     0.006663
CU        0.634000    0.567333    0.300667     0.006663
NI        0.634000    0.600667    0.334000     0.004307
CU        0.667333    0.567333    0.334000     0.006663
NI        0.667333    0.600667    0.300667     0.004307
NI        0.700667    0.567333    0.300667     0.004307
NI        0.700667    0.600667    0.334000     0.004307
NI        0.734000    0.567333    0.334000     0.004307
NI        0.734000    0.600667    0.300667     0.004307
NI        0.767333    0.567333    0.300667     0.004307
CU        0.767333    0.600667    0.334000     0.006663
CU        0.800667    0.567333    0.334000     0.006663
NI        0.800667    0.600667    0.300667     0.004307
NI        0.834000    0.567333    0.300667     0.004307
CU        0.834000    0.600667    0.334000     0.006663
NI        0.067333    0.634000    0.334000     0.004307
CU        0.067333    0.667333    0.300667     0.006663
NI        0.100667    0.634000    0.300667     0.004307
NI        0.100667    0.667333    0.334000     0.004307
NI        0.134000    0.634000    0.334000     0.004307
NI        0.134000    0.667333    0.300667     0.004307
NI        0.167333    0.634000    0.300667     0.004307
NI        0.167333    0.667333    0.334000     0.004307
CU        0.200667    0.634000    0.334000     0.006663
NI        0.200667    0.667333    0.300667     0.004307
CU        0.234000    0.634000    0.300667     0.006663
CU        0.234000    0.667333    0.334000     0.006663
NI        0.267333    0.634000    0.334000     0.004307
NI        0.267333    0.667333    0.300667     0.004307
NI        0.300667    0.634000    0.300667     0.004307
NI        0.300667    0.667333    0.334000     0.004307
CU        0.334000    0.634000    0.334000     0.006663
CU        0.334000    0.667333    0.300667     0.006663
CU        0.367333    0.634000    0.300667     0.006663
CU        0.367333    0.667333    0.334000     0.006663
CU        0.400667    0.634000    0.334000     0.006663
NI        0.400667    0.667333    0.300667     0.004307
NI        0.434000    0.634000    0.300667     0.004307
CU        0.434000    0.667333    0.334000     0.006663
NI        0.467333    0.634000    0.334000     0.004307
CU        0.467333    0.667333    0.300667     0.006663
CU        0.500667    0.634000    0.300667     0.006663
CU        0.500667    0.667333    0.334000     0.006663
CU        0.534000    0.634000    0.334000     0.006663
NI        0.534000    0.667333    0.300667     0.004307
CU        0.567333    0.634000    0.300667     0.006663
NI        0.567333    0.667333    0.334000     0.004307
CU        0.600667    0.634000    0.334000     0.006663
NI        0.600667    0.667333    0.300667     0.004307
NI        0.634000    0.634000    0.300667     0.004307
CU        0.634000    0.667333    0.334000     0.006663
NI        0.667333    0.634000    0.334000     0.004307
CU        0.667333    0.667333    0.300667     0.006663
NI        0.700667    0.634000    0.300667     0.004307
NI        0.700667    0.667333    0.334000     0.004307
CU        0.734000    0.634000    0.334000     0.006663
NI        0.734000    0.667333    0.300667     0.004307
CU        0.767333    0.634000    0.300667     0.006663
NI        0.767333    0.667333    0.334000     0.004307
NI        0.800667    0.634000    0.334000     0.004307
NI        0.800667    0.667333    0.300667     0.004307
NI        0.100667    0.700667    0.300667     0.004307
NI        0.100667    0.734000    0.334000     0.004307
NI        0.134000    0.700667    0.334000     0.004307
NI        0.134000    0.734000    0.300667     0.004307
CU        0.167333    0.700667    0.300667     0.006663
CU        0.167333    0.734000    0.334000     0.006663
CU        0.200667    0.700667    0.334000     0.006663
NI        0.200667    0.734000    0.300667     0.004307
CU        0.234000    0.700667    0.300667     0.006663
CU        0.234000    0.734000    0.334000     0.006663
CU        0.267333    0.700667    0.334000     0.006663
CU        0.267333    0.734000    0.300667     0.006663
CU        0.300667    0.700667    0.300667     0.006663
CU        0.300667    0.734000    0.334000     0.006663
NI        0.334000    0.700667    0.334000     0.004307
CU        0.334000    0.734000    0.300667     0.006663
NI        0.367333    0.700667    0.300667     0.004307
CU        0.367333    0.734000    0.334000     0.006663
NI        0.400667    0.700667    0.334000     0.004307
NI        0.400667    0.734000    0.300667     0.004307
NI        0.434000    0.700667    0.300667     0.004307
NI        0.434000    0.734000    0.334000     0.004307
CU        0.467333    0.700667    0.334000     0.006663
CU        0.467333    0.734000    0.300667     0.006663
NI        0.500667    0.700667    0.300667     0.004307
NI        0.500667    0.734000    0.334000     0.004307
CU        0.534000    0.700667    0.334000     0.006663
NI        0.534000    0.734000    0.300667     0.004307
CU        0.567333    0.700667    0.300667     0.006663
CU        0.567333    0.734000    0.334000     0.006663
CU        0.600667    0.700667    0.334000     0.006663
NI        0.600667    0.734000    0.300667     0.004307
NI        0.634000    0.700667    0.300667     0.004307
CU        0.634000    0.734000    0.334000     0.006663
CU        0.667333    0.700667    0.334000     0.006663
CU        0.667333    0.734000    0.300667     0.006663
NI        0.700667    0.700667    0.300667     0.004307
NI        0.700667    0.734000    0.334000     0.004307
CU        0.734000    0.700667    0.334000     0.006663
NI        0.734000    0.734000    0.300667     0.004307
CU        0.767333    0.700667    0.300667     0.006663
NI        0.767333    0.734000    0.334000     0.004307
NI        0.134000    0.767333    0.334000     0.004307
NI        0.167333    0.767333    0.300667     0.004307
CU        0.200667    0.767333    0.334000     0.006663
CU        0.200667    0.800667    0.300667     0.006663
NI        0.234000    0.767333    0.300667     0.004307
NI        0.234000    0.800667    0.334000     0.004307
NI        0.267333    0.767333    0.334000     0.004307
NI        0.267333    0.800667    0.300667     0.004307
NI        0.300667    0.767333    0.300667     0.004307
NI        0.300667    0.800667    0.334000     0.004307
NI        0.334000    0.767333    0.334000     0.004307
CU        0.334000    0.800667    0.300667     0.006663
CU        0.367333    0.767333    0.300667     0.006663
NI        0.367333    0.800667    0.334000     0.004307
NI        0.400667    0.767333    0.334000     0.004307
CU        0.400667    0.800667    0.300667     0.006663
CU        0.434000    0.767333    0.300667     0.006663
NI        0.434000    0.800667    0.334000     0.004307
NI        0.467333    0.767333    0.334000     0.004307
CU        0.467333    0.800667    0.300667     0.006663
CU        0.500667    0.767333    0.300667     0.006663
NI        0.500667    0.800667    0.334000     0.004307
NI        0.534000    0.767333    0.334000     0.004307
NI        0.534000    0.800667    0.300667     0.004307
CU        0.567333    0.767333    0.300667     0.006663
NI        0.567333    0.800667    0.334000     0.004307
NI        0.600667    0.767333    0.334000     0.004307
CU        0.600667    0.800667    0.300667     0.006663
CU        0.634000    0.767333    0.300667     0.006663
CU        0.634000    0.800667    0.334000     0.006663
NI        0.667333    0.767333    0.334000     0.004307
CU        0.667333    0.800667    0.300667     0.006663
NI        0.700667    0.767333    0.300667     0.004307
NI        0.734000    0.767333    0.334000     0.004307
NI        0.267333    0.834000    0.334000     0.004307
CU        0.300667    0.834000    0.300667     0.006663
CU        0.334000    0.834000    0.334000     0.006663
CU        0.367333    0.834000    0.300667     0.006663
NI        0.367333    0.867333    0.334000     0.004307
NI        0.400667    0.834000    0.334000     0.004307
CU        0.400667    0.867333    0.300667     0.006663
NI        0.434000    0.834000    0.300667     0.004307
NI        0.434000    0.867333    0.334000     0.004307
CU        0.467333    0.834000    0.334000     0.006663
NI        0.467333    0.867333    0.300667     0.004307
NI        0.500667    0.834000    0.300667     0.004307
NI        0.500667    0.867333    0.334000     0.004307
CU        0.534000    0.834000    0.334000     0.006663
CU        0.567333    0.834000    0.300667     0.006663
CU        0.600667    0.834000    0.334000     0.006663
CU        0.300667    0.000667    0.400667     0.006663
CU        0.334000    0.000667    0.367333     0.006663
CU        0.367333    0.000667    0.400667     0.006663
NI        0.400667    0.000667    0.367333     0.004307
NI        0.434000    0.000667    0.400667     0.004307
NI        0.467333    0.000667    0.367333     0.004307
NI        0.500667    0.000667    0.400667     0.004307
CU        0.534000    0.000667    0.367333     0.006663
NI        0.567333    0.000667    0.400667     0.004307
NI        0.167333    0.067333    0.400667     0.004307
CU        0.200667    0.067333    0.367333     0.006663
CU        0.234000    0.034000    0.367333     0.006663
NI        0.234000    0.067333    0.400667     0.004307
NI        0.267333    0.034000    0.400667     0.004307
CU        0.267333    0.067333    0.367333     0.006663
NI        0.300667    0.034000    0.367333     0.004307
NI        0.300667    0.067333    0.400667     0.004307
NI        0.334000    0.034000    0.400667     0.004307
NI        0.334000    0.067333    0.367333     0.004307
CU        0.367333    0.034000    0.367333     0.006663
CU        0.367333    0.067333    0.400667     0.006663
NI        0.400667    0.034000    0.400667     0.004307
NI        0.400667    0.067333    0.367333     0.004307
CU        0.434000    0.034000    0.367333     0.006663
CU        0.434000    0.067333    0.400667     0.006663
NI        0.467333    0.034000    0.400667     0.004307
CU        0.467333    0.067333    0.367333     0.006663
NI        0.500667    0.034000    0.367333     0.004307
NI        0.500667    0.067333    0.400667     0.004307
CU        0.534000    0.034000    0.400667     0.006663
NI        0.534000    0.067333    0.367333     0.004307
NI        0.567333    0.034000    0.367333     0.004307
CU        0.567333    0.067333    0.400667     0.006663
NI        0.600667    0.034000    0.400667     0.004307
NI        0.600667    0.067333    0.367333     0.004307
NI        0.634000    0.034000    0.367333     0.004307
NI        0.634000    0.067333    0.400667     0.004307
NI        0.667333    0.067333    0.367333     0.004307
CU        0.700667    0.067333    0.400667     0.006663
CU        0.100667    0.134000    0.400667     0.006663
NI        0.134000    0.100667    0.400667     0.004307
NI        0.134000    0.134000    0.367333     0.004307
CU        0.167333    0.100667    0.367333     0.006663
CU        0.167333    0.134000    0.400667     0.006663
NI        0.200667    0.100667    0.400667     0.004307
CU        0.200667    0.134000    0.367333     0.006663
CU        0.234000    0.100667    0.367333     0.006663
NI        0.234000    0.134000    0.400667     0.004307
NI        0.267333    0.100667    0.400667     0.004307
NI        0.267333    0.134000    0.367333     0.004307
CU        0.300667    0.100667    0.367333     0.006663
CU        0.300667    0.134000    0.400667     0.006663
CU        0.334000    0.100667    0.400667     0.006663
CU        0.334000    0.134000    0.367333     0.006663
CU        0.367333    0.100667    0.367333     0.006663
CU        0.367333    0.134000    0.400667     0.006663
CU        0.400667    0.100667    0.400667     0.006663
NI        0.400667    0.134000    0.367333     0.004307
CU        0.434000    0.100667    0.367333     0.006663
CU        0.434000    0.134000    0.400667     0.006663
NI        0.467333    0.100667    0.400667     0.004307
NI        0.467333    0.134000    0.367333     0.004307
NI        0.500667    0.100667    0.367333     0.004307
NI        0.500667    0.134000    0.400667     0.004307
CU        0.534000    0.100667    0.400667     0.006663
CU        0.534000    0.134000    0.367333     0.006663
NI        0.567333    0.100667    0.367333     0.004307
NI        0.567333    0.134000    0.400667     0.004307
NI        0.600667    0.100667    0.400667     0.004307
CU        0.600667    0.134000    0.367333     0.006663
NI        0.634000    0.100667    0.367333     0.004307
NI        0.634000    0.134000    0.400667     0.004307
NI        0.667333    0.100667    0.400667     0.004307
CU        0.667333    0.134000    0.367333     0.006663
NI        0.700667    0.100667    0.367333     0.004307
NI        0.700667    0.134000    0.400667     0.004307
CU        0.734000    0.100667    0.400667     0.006663
NI        0.734000    0.134000    0.367333     0.004307
CU        0.767333    0.134000    0.400667     0.006663
CU        0.067333    0.167333    0.400667     0.006663
NI        0.067333    0.200667    0.367333     0.004307
CU        0.100667    0.167333    0.367333     0.006663
NI        0.100667    0.200667    0.400667     0.004307
NI        0.134000    0.167333    0.400667     0.004307
CU        0.134000    0.200667    0.367333     0.006663
CU        0.167333    0.167333    0.367333     0.006663
CU        0.167333    0.200667    0.400667     0.006663
CU        0.200667    0.167333    0.400667     0.006663
NI        0.200667    0.200667    0.367333     0.004307
NI        0.234000    0.167333    0.367333     0.004307
NI        0.234000    0.200667    0.400667     0.004307
CU        0.267333    0.167333    0.400667     0.006663
NI        0.267333    0.200667    0.367333     0.004307
CU        0.300667    0.167333    0.367333     0.006663
NI        0.300667    0.200667    0.400667     0.004307
NI        0.334000    0.167333    0.400667     0.004307
CU        0.334000    0.200667    0.367333     0.006663
CU        0.367333    0.167333    0.367333     0.006663
NI        0.367333    0.200667    0.400667     0.004307
CU        0.400667    0.167333    0.400667     0.006663
NI        0.400667    0.200667    0.367333     0.004307
CU        0.434000    0.167333    0.367333     0.006663
NI        0.434000    0.200667    0.400667     0.004307
NI        0.467333    0.167333    0.400667     0.004307
NI        0.467333    0.200667    0.367333     0.004307
NI        0.500667    0.167333    0.367333     0.004307
CU        0.500667    0.200667    0.400667     0.006663
NI        0.534000    0.167333    0.400667     0.004307
CU        0.534000    0.200667    0.367333     0.006663
NI        0.567333    0.167333    0.367333     0.004307
CU        0.567333    0.200667    0.400667     0.006663
CU        0.600667    0.167333    0.400667     0.006663
CU        0.600667    0.200667    0.367333     0.006663
NI        0.634000    0.167333    0.367333     0.004307
CU        0.634000    0.200667    0.400667     0.006663
NI        0.667333    0.167333    0.400667     0.004307
CU        0.667333    0.200667    0.367333     0.006663
NI        0.700667    0.167333    0.367333     0.004307
NI        0.700667    0.200667    0.400667     0.004307
NI        0.734000    0.167333    0.400667     0.004307
CU        0.734000    0.200667    0.367333     0.006663
CU        0.767333    0.167333    0.367333     0.006663
NI        0.767333    0.200667    0.400667     0.004307
NI        0.800667    0.167333    0.400667     0.004307
NI        0.800667    0.200667    0.367333     0.004307
CU        0.034000    0.234000    0.367333     0.006663
NI        0.034000    0.267333    0.400667     0.004307
CU        0.067333    0.234000    0.400667     0.006663
CU        0.067333    0.267333    0.367333     0.006663
CU        0.100667    0.234000    0.367333     0.006663
CU        0.100667    0.267333    0.400667     0.006663
CU        0.134000    0.234000    0.400667     0.006663
CU        0.134000    0.267333    0.367333     0.006663
NI        0.167333    0.234000    0.367333     0.004307
CU        0.167333    0.267333    0.400667     0.006663
NI        0.200667    0.234000    0.400667     0.004307
CU        0.200667    0.267333    0.367333     0.006663
CU        0.234000    0.234000    0.367333     0.006663
CU        0.234000    0.267333    0.400667     0.006663
CU        0.267333    0.234000    0.400667     0.006663
CU        0.267333    0.267333    0.367333     0.006663
CU        0.300667    0.234000    0.367333     0.006663
CU        0.300667    0.267333    0.400667     0.006663
CU        0.334000    0.234000    0.400667     0.006663
NI        0.334000    0.267333    0.367333     0.004307
CU        0.367333    0.234000    0.367333     0.006663
NI        0.367333    0.267333    0.400667     0.004307
CU        0.400667    0.234000    0.400667     0.006663
NI        0.400667    0.267333    0.367333     0.004307
NI        0.434000    0.234000    0.367333     0.004307
NI        0.434000    0.267333    0.400667     0.004307
CU        0.467333    0.234000    0.400667     0.006663
NI        0.467333    0.267333    0.367333     0.004307
NI        0.500667    0.234000    0.367333     0.004307
NI        0.500667    0.267333    0.400667     0.004307
NI        0.534000    0.234000    0.400667     0.004307
CU        0.534000    0.267333    0.367333     0.006663
CU        0.567333    0.234000    0.367333     0.006663
CU        0.567333    0.267333    0.400667     0.006663
CU        0.600667    0.234000    0.400667     0.006663
CU        0.600667    0.267333    0.367333     0.006663
CU        0.634000    0.234000    0.367333     0.006663
CU        0.634000    0.267333    0.400667     0.006663
CU        0.667333    0.234000    0.400667     0.006663
CU        0.667333    0.267333    0.367333     0.006663
NI        0.700667    0.234000    0.367333     0.004307
NI        0.700667    0.267333    0.400667     0.004307
CU        0.734000    0.234000    0.400667     0.006663
NI        0.734000    0.267333    0.367333     0.004307
CU        0.767333    0.234000    0.367333     0.006663
CU        0.767333    0.267333    0.400667     0.006663
CU        0.800667    0.234000    0.400667     0.006663
CU        0.800667    0.267333    0.367333     0.006663
CU        0.834000    0.234000    0.367333     0.006663
CU        0.834000    0.267333    0.400667     0.006663
NI        0.000667    0.300667    0.400667     0.004307
NI        0.000667    0.334000    0.367333     0.004307
NI        0.034000    0.300667    0.367333     0.004307
NI        0.034000    0.334000    0.400667     0.004307
CU        0.067333    0.300667    0.400667     0.006663
NI        0.067333    0.334000    0.367333     0.004307
CU        0.100667    0.300667    0.367333     0.006663
CU        0.100667    0.334000    0.400667     0.006663
NI        0.134000    0.300667    0.400667     0.004307
CU        0.134000    0.334000    0.367333     0.006663
NI        0.167333    0.300667    0.367333     0.004307
NI        0.167333    0.334000    0.400667     0.004307
CU        0.200667    0.300667    0.400667     0.006663
NI        0.200667    0.334000    0.367333     0.004307
NI        0.234000    0.300667    0.367333     0.004307
CU        0.234000    0.334000    0.400667     0.006663
CU        0.267333    0.300667    0.400667     0.006663
NI        0.267333    0.334000    0.367333     0.004307
CU        0.300667    0.300667    0.367333     0.006663
CU        0.300667    0.334000    0.400667     0.006663
CU        0.334000    0.300667    0.400667     0.006663
NI        0.334000    0.334000    0.367333     0.004307
CU        0.367333    0.300667    0.367333     0.006663
CU        0.367333    0.334000    0.400667     0.006663
CU        0.400667    0.300667    0.400667     0.006663
NI        0.400667    0.334000    0.367333     0.004307
NI        0.434000    0.300667    0.367333     0.004307
CU        0.434000    0.334000    0.400667     0.006663
CU        0.467333    0.300667    0.400667     0.006663
NI        0.467333    0.334000    0.367333     0.004307
CU        0.500667    0.300667    0.367333     0.006663
NI        0.500667    0.334000    0.400667     0.004307
NI        0.534000    0.300667    0.400667     0.004307
NI        0.534000    0.334000    0.367333     0.004307
CU        0.567333    0.300667    0.367333     0.006663
CU        0.567333    0.334000    0.400667     0.006663
CU        0.600667    0.300667    0.400667     0.006663
CU        0.600667    0.334000    0.367333     0.006663
NI        0.634000    0.300667    0.367333     0.004307
NI        0.634000    0.334000    0.400667     0.004307
CU        0.667333    0.300667    0.400667     0.006663
NI        0.667333    0.334000    0.367333     0.004307
CU        0.700667    0.300667    0.367333     0.006663
NI        0.700667    0.334000    0.400667     0.004307
NI        0.734000    0.300667    0.400667     0.004307
CU        0.734000    0.334000    0.367333     0.006663
NI        0.767333    0.300667    0.367333     0.004307
NI        0.767333    0.334000    0.400667     0.004307
CU        0.800667    0.300667    0.400667     0.006663
CU        0.800667    0.334000    0.367333     0.006663
CU        0.834000    0.300667    0.367333     0.006663
CU        0.834000    0.334000    0.400667     0.006663
NI        0.867333    0.300667    0.400667     0.004307
NI        0.867333    0.334000    0.367333     0.004307
NI        0.000667    0.367333    0.400667     0.004307
CU        0.000667    0.400667    0.367333     0.006663
NI        0.034000    0.367333    0.367333     0.004307
CU        0.034000    0.400667    0.400667     0.006663
CU        0.067333    0.367333    0.400667     0.006663
CU        0.067333    0.400667    0.367333     0.006663
CU        0.100667    0.367333    0.367333     0.006663
CU        0.100667    0.400667    0.400667     0.006663
NI        0.134000    0.367333    0.400667     0.004307
NI        0.134000    0.400667    0.367333     0.004307
CU        0.167333    0.367333    0.367333     0.006663
CU        0.167333    0.400667    0.400667     0.006663
NI        0.200667    0.367333    0.400667     0.004307
CU        0.200667    0.400667    0.367333     0.006663
CU        0.234000    0.367333    0.367333     0.006663
NI        0.234000    0.400667    0.400667     0.004307
CU        0.267333    0.367333    0.400667     0.006663
NI        0.267333    0.400667    0.367333     0.004307
CU        0.300667    0.367333    0.367333     0.006663
CU        0.300667    0.400667    0.400667     0.006663
CU        0.334000    0.367333    0.400667     0.006663
CU        0.334000    0.400667    0.367333     0.006663
NI        0.367333    0.367333    0.367333     0.004307
NI        0.367333    0.400667    0.400667     0.004307
NI        0.400667    0.367333    0.400667     0.004307
CU        0.400667    0.400667    0.367333     0.006663
NI        0.434000    0.367333    0.367333     0.004307
CU        0.434000    0.400667    0.400667     0.006663
NI        0.467333    0.367333    0.400667     0.004307
NI        0.467333    0.400667    0.367333     0.004307
NI        0.500667    0.367333    0.367333     0.004307
NI        0.500667    0.400667    0.400667     0.004307
NI        0.534000    0.367333    0.400667     0.004307
CU        0.534000    0.400667    0.367333     0.006663
NI        0.567333    0.367333    0.367333     0.004307
NI        0.567333    0.400667    0.400667     0.004307
CU        0.600667    0.367333    0.400667     0.006663
CU        0.600667    0.400667    0.367333     0.006663
NI        0.634000    0.367333    0.367333     0.004307
NI        0.634000    0.400667    0.400667     0.004307
CU        0.667333    0.367333    0.400667     0.006663
NI        0.667333    0.400667    0.367333     0.004307
NI        0.700667    0.367333    0.367333     0.004307
CU        0.700667    0.400667    0.400667     0.006663
NI        0.734000    0.367333    0.400667     0.004307
CU        0.734000    0.400667    0.367333     0.006663
NI        0.767333    0.367333    0.367333     0.004307
NI        0.767333    0.400667    0.400667     0.004307
CU        0.800667    0.367333    0.400667     0.006663
NI        0.800667    0.400667    0.367333     0.004307
CU        0.834000    0.367333    0.367333     0.006663
CU        0.834000    0.400667    0.400667     0.006663
CU        0.867333    0.367333    0.400667     0.006663
CU        0.867333    0.400667    0.367333     0.006663
CU        0.000667    0.434000    0.400667     0.006663
NI        0.000667    0.467333    0.367333     0.004307
NI        0.034000    0.434000    0.367333     0.004307
CU        0.034000    0.467333    0.400667     0.006663
CU        0.067333    0.434000    0.400667     0.006663
CU        0.067333    0.467333    0.367333     0.006663
CU        0.100667    0.434000    0.367333     0.006663
CU        0.100667    0.467333    0.400667     0.006663
CU        0.134000    0.434000    0.400667     0.006663
CU        0.134000    0.467333    0.367333     0.006663
CU        0.167333    0.434000    0.367333     0.006663
NI        0.167333    0.467333    0.400667     0.004307
NI        0.200667    0.434000    0.400667     0.004307
NI        0.200667    0.467333    0.367333     0.004307
CU        0.234000    0.434000    0.367333     0.006663
NI        0.234000    0.467333    0.400667     0.004307
CU        0.267333    0.434000    0.400667     0.006663
CU        0.267333    0.467333    0.367333     0.006663
CU        0.300667    0.434000    0.367333     0.006663
CU        0.300667    0.467333    0.400667     0.006663
CU        0.334000    0.434000    0.400667     0.006663
CU        0.334000    0.467333    0.367333     0.006663
CU        0.367333    0.434000    0.367333     0.006663
CU        0.367333    0.467333    0.400667     0.006663
NI        0.400667    0.434000    0.400667     0.004307
CU        0.400667    0.467333    0.367333     0.006663
CU        0.434000    0.434000    0.367333     0.006663
CU        0.434000    0.467333    0.400667     0.006663
NI        0.467333    0.434000    0.400667     0.004307
CU        0.467333    0.467333    0.367333     0.006663
CU        0.500667    0.434000    0.367333     0.006663
CU        0.500667    0.467333    0.400667     0.006663
CU        0.534000    0.434000    0.400667     0.006663
CU        0.534000    0.467333    0.367333     0.006663
NI        0.567333    0.434000    0.367333     0.004307
NI        0.567333    0.467333    0.400667     0.004307
CU        0.600667    0.434000    0.400667     0.006663
NI        0.600667    0.467333    0.367333     0.004307
CU        0.634000    0.434000    0.367333     0.006663
NI        0.634000    0.467333    0.400667     0.004307
NI        0.667333    0.434000    0.400667     0.004307
CU        0.667333    0.467333    0.367333     0.006663
NI        0.700667    0.434000    0.367333     0.004307
NI        0.700667    0.467333    0.400667     0.004307
NI        0.734000    0.434000    0.400667     0.004307
CU        0.734000    0.467333    0.367333     0.006663
NI        0.767333    0.434000    0.367333     0.004307
CU        0.767333    0.467333    0.400667     0.006663
NI        0.800667    0.434000    0.400667     0.004307
NI        0.800667    0.467333    0.367333     0.004307
NI        0.834000    0.434000    0.367333     0.004307
NI        0.834000    0.467333    0.400667     0.004307
CU        0.867333    0.434000    0.400667     0.006663
NI        0.867333    0.467333    0.367333     0.004307
NI        0.000667    0.500667    0.400667     0.004307
NI        0.000667    0.534000    0.367333     0.004307
CU        0.034000    0.500667    0.367333     0.006663
CU        0.034000    0.534000    0.400667     0.006663
CU        0.067333    0.500667    0.400667     0.006663
NI        0.067333    0.534000    0.367333     0.004307
CU        0.100667    0.500667    0.367333     0.006663
CU        0.100667    0.534000    0.400667     0.006663
NI        0.134000    0.500667    0.400667     0.004307
NI        0.134000    0.534000    0.367333     0.004307
CU        0.167333    0.500667    0.367333     0.006663
NI        0.167333    0.534000    0.400667     0.004307
CU        0.200667    0.500667    0.400667     0.006663
NI        0.200667    0.534000    0.367333     0.004307
CU        0.234000    0.500667    0.367333     0.006663
NI        0.234000    0.534000    0.400667     0.004307
CU        0.267333    0.500667    0.400667     0.006663
NI        0.267333    0.534000    0.367333     0.004307
NI        0.300667    0.500667    0.367333     0.004307
CU        0.300667    0.534000    0.400667     0.006663
CU        0.334000    0.500667    0.400667     0.006663
NI        0.334000    0.534000    0.367333     0.004307
NI        0.367333    0.500667    0.367333     0.004307
NI        0.367333    0.534000    0.400667     0.004307
CU        0.400667    0.500667    0.400667     0.006663
NI        0.400667    0.534000    0.367333     0.004307
CU        0.434000    0.500667    0.367333     0.006663
NI        0.434000    0.534000    0.400667     0.004307
NI        0.467333    0.500667    0.400667     0.004307
NI        0.467333    0.534000    0.367333     0.004307
CU        0.500667    0.500667    0.367333     0.006663
NI        0.500667    0.534000    0.400667     0.004307
CU        0.534000    0.500667    0.400667     0.006663
CU        0.534000    0.534000    0.367333     0.006663
CU        0.567333    0.500667    0.367333     0.006663
CU        0.567333    0.534000    0.400667     0.006663
NI        0.600667    0.500667    0.400667     0.004307
CU        0.600667    0.534000    0.367333     0.006663
CU        0.634000    0.500667    0.367333     0.006663
NI        0.634000    0.534000    0.400667     0.004307
CU        0.667333    0.500667    0.400667     0.006663
NI        0.667333    0.534000    0.367333     0.004307
NI        0.700667    0.500667    0.367333     0.004307
CU        0.700667    0.534000    0.400667     0.006663
NI        0.734000    0.500667    0.400667     0.004307
CU        0.734000    0.534000    0.367333     0.006663
CU        0.767333    0.500667    0.367333     0.006663
CU        0.767333    0.534000    0.400667     0.006663
CU        0.800667    0.500667    0.400667     0.006663
CU        0.800667    0.534000    0.367333     0.006663
CU        0.834000    0.500667    0.367333     0.006663
NI        0.834000    0.534000    0.400667     0.004307
CU        0.867333    0.500667    0.400667     0.006663
CU        0.867333    0.534000    0.367333     0.006663
NI        0.000667    0.567333    0.400667     0.004307
CU        0.034000    0.567333    0.367333     0.006663
NI        0.034000    0.600667    0.400667     0.004307
CU        0.067333    0.567333    0.400667     0.006663
NI        0.067333    0.600667    0.367333     0.004307
CU        0.100667    0.567333    0.367333     0.006663
CU        0.100667    0.600667    0.400667     0.006663
NI        0.134000    0.567333    0.400667     0.004307
NI        0.134000    0.600667    0.367333     0.004307
CU        0.167333    0.567333    0.367333     0.006663
CU        0.167333    0.600667    0.400667     0.006663
NI        0.200667    0.567333    0.400667     0.004307
NI        0.200667    0.600667    0.367333     0.004307
NI        0.234000    0.567333    0.367333     0.004307
NI        0.234000    0.600667    0.400667     0.004307
CU        0.267333    0.567333    0.400667     0.006663
NI        0.267333    0.600667    0.367333     0.004307
NI        0.300667    0.567333    0.367333     0.004307
NI        0.300667    0.600667    0.400667     0.004307
CU        0.334000    0.567333    0.400667     0.006663
CU        0.334000    0.600667    0.367333     0.006663
CU        0.367333    0.567333    0.367333     0.006663
NI        0.367333    0.600667    0.400667     0.004307
CU        0.400667    0.567333    0.400667     0.006663
NI        0.400667    0.600667    0.367333     0.004307
CU        0.434000    0.567333    0.367333     0.006663
NI        0.434000    0.600667    0.400667     0.004307
CU        0.467333    0.567333    0.400667     0.006663
NI        0.467333    0.600667    0.367333     0.004307
CU        0.500667    0.567333    0.367333     0.006663
NI        0.500667    0.600667    0.400667     0.004307
CU        0.534000    0.567333    0.400667     0.006663
NI        0.534000    0.600667    0.367333     0.004307
CU        0.567333    0.567333    0.367333     0.006663
NI        0.567333    0.600667    0.400667     0.004307
CU        0.600667    0.567333    0.400667     0.006663
CU        0.600667    0.600667    0.367333     0.006663
CU        0.634000    0.567333    0.367333     0.006663
NI        0.634000    0.600667    0.400667     0.004307
CU        0.667333    0.567333    0.400667     0.006663
CU        0.667333    0.600667    0.367333     0.006663
CU        0.700667    0.567333    0.367333     0.006663
NI        0.700667    0.600667    0.400667     0.004307
NI        0.734000    0.567333    0.400667     0.004307
CU        0.734000    0.600667    0.367333     0.006663
NI        0.767333    0.567333    0.367333     0.004307
NI        0.767333    0.600667    0.400667     0.004307
CU        0.800667    0.567333    0.400667     0.006663
CU        0.800667    0.600667    0.367333     0.006663
CU        0.834000    0.567333    0.367333     0.006663
CU        0.834000    0.600667    0.400667     0.006663
NI        0.867333    0.567333    0.400667     0.004307
CU        0.034000    0.634000    0.367333     0.006663
CU        0.067333    0.634000    0.400667     0.006663
NI        0.067333    0.667333    0.367333     0.004307
NI        0.100667    0.634000    0.367333     0.004307
CU        0.100667    0.667333    0.400667     0.006663
CU        0.134000    0.634000    0.400667     0.006663
NI        0.134000    0.667333    0.367333     0.004307
CU        0.167333    0.634000    0.367333     0.006663
NI        0.167333    0.667333    0.400667     0.004307
CU        0.200667    0.634000    0.400667     0.006663
NI        0.200667    0.667333    0.367333     0.004307
NI        0.234000    0.634000    0.367333     0.004307
CU        0.234000    0.667333    0.400667     0.006663
CU        0.267333    0.634000    0.400667     0.006663
NI        0.267333    0.667333    0.367333     0.004307
NI        0.300667    0.634000    0.367333     0.004307
CU        0.300667    0.667333    0.400667     0.006663
NI        0.334000    0.634000    0.400667     0.004307
NI        0.334000    0.667333    0.367333     0.004307
CU        0.367333    0.634000    0.367333     0.006663
NI        0.367333    0.667333    0.400667     0.004307
CU        0.400667    0.634000    0.400667     0.006663
CU        0.400667    0.667333    0.367333     0.006663
CU        0.434000    0.634000    0.367333     0.006663
NI        0.434000    0.667333    0.400667     0.004307
NI        0.467333    0.634000    0.400667     0.004307
CU        0.467333    0.667333    0.367333     0.006663
CU        0.500667    0.634000    0.367333     0.006663
NI        0.500667    0.667333    0.400667     0.004307
CU        0.534000    0.634000    0.400667     0.006663
NI        0.534000    0.667333    0.367333     0.004307
NI        0.567333    0.634000    0.367333     0.004307
CU        0.567333    0.667333    0.400667     0.006663
CU        0.600667    0.634000    0.400667     0.006663
NI        0.600667    0.667333    0.367333     0.004307
NI        0.634000    0.634000    0.367333     0.004307
NI        0.634000    0.667333    0.400667     0.004307
CU        0.667333    0.634000    0.400667     0.006663
CU        0.667333    0.667333    0.367333     0.006663
NI        0.700667    0.634000    0.367333     0.004307
CU        0.700667    0.667333    0.400667     0.006663
NI        0.734000    0.634000    0.400667     0.004307
CU        0.734000    0.667333    0.367333     0.006663
NI        0.767333    0.634000    0.367333     0.004307
NI        0.767333    0.667333    0.400667     0.004307
CU        0.800667    0.634000    0.400667     0.006663
NI        0.800667    0.667333    0.367333     0.004307
NI        0.834000    0.634000    0.367333     0.004307
CU        0.067333    0.700667    0.400667     0.006663
NI        0.100667    0.700667    0.367333     0.004307
CU        0.100667    0.734000    0.400667     0.006663
NI        0.134000    0.700667    0.400667     0.004307
CU        0.134000    0.734000    0.367333     0.006663
NI        0.167333    0.700667    0.367333     0.004307
CU        0.167333    0.734000    0.400667     0.006663
CU        0.200667    0.700667    0.400667     0.006663
NI        0.200667    0.734000    0.367333     0.004307
NI        0.234000    0.700667    0.367333     0.004307
CU        0.234000    0.734000    0.400667     0.006663
CU        0.267333    0.700667    0.400667     0.006663
NI        0.267333    0.734000    0.367333     0.004307
NI        0.300667    0.700667    0.367333     0.004307
NI        0.300667    0.734000    0.400667     0.004307
NI        0.334000    0.700667    0.400667     0.004307
CU        0.334000    0.734000    0.367333     0.006663
CU        0.367333    0.700667    0.367333     0.006663
NI        0.367333    0.734000    0.400667     0.004307
NI        0.400667    0.700667    0.400667     0.004307
CU        0.400667    0.734000    0.367333     0.006663
CU        0.434000    0.700667    0.367333     0.006663
NI        0.434000    0.734000    0.400667     0.004307
CU        0.467333    0.700667    0.400667     0.006663
CU        0.467333    0.734000    0.367333     0.006663
CU        0.500667    0.700667    0.367333     0.006663
NI        0.500667    0.734000    0.400667     0.004307
NI        0.534000    0.700667    0.400667     0.004307
NI        0.534000    0.734000    0.367333     0.004307
CU        0.567333    0.700667    0.367333     0.006663
NI        0.567333    0.734000    0.400667     0.004307
CU        0.600667    0.700667    0.400667     0.006663
NI        0.600667    0.734000    0.367333     0.004307
CU        0.634000    0.700667    0.367333     0.006663
CU        0.634000    0.734000    0.400667     0.006663
NI        0.667333    0.700667    0.400667     0.004307
NI        0.667333    0.734000    0.367333     0.004307
NI        0.700667    0.700667    0.367333     0.004307
CU        0.700667    0.734000    0.400667     0.006663
CU        0.734000    0.700667    0.400667     0.006663
NI        0.734000    0.734000    0.367333     0.004307
CU        0.767333    0.700667    0.367333     0.006663
NI        0.767333    0.734000    0.400667     0.004307
NI        0.800667    0.700667    0.400667     0.004307
CU        0.134000    0.767333    0.400667     0.006663
CU        0.167333    0.767333    0.367333     0.006663
CU        0.167333    0.800667    0.400667     0.006663
CU        0.200667    0.767333    0.400667     0.006663
NI        0.200667    0.800667    0.367333     0.004307
CU        0.234000    0.767333    0.367333     0.006663
CU        0.234000    0.800667    0.400667     0.006663
CU        0.267333    0.767333    0.400667     0.006663
CU        0.267333    0.800667    0.367333     0.006663
CU        0.300667    0.767333    0.367333     0.006663
NI        0.300667    0.800667    0.400667     0.004307
NI        0.334000    0.767333    0.400667     0.004307
NI        0.334000    0.800667    0.367333     0.004307
CU        0.367333    0.767333    0.367333     0.006663
NI        0.367333    0.800667    0.400667     0.004307
NI        0.400667    0.767333    0.400667     0.004307
NI        0.400667    0.800667    0.367333     0.004307
NI        0.434000    0.767333    0.367333     0.004307
CU        0.434000    0.800667    0.400667     0.006663
CU        0.467333    0.767333    0.400667     0.006663
NI        0.467333    0.800667    0.367333     0.004307
NI        0.500667    0.767333    0.367333     0.004307
CU        0.500667    0.800667    0.400667     0.006663
NI        0.534000    0.767333    0.400667     0.004307
NI        0.534000    0.800667    0.367333     0.004307
CU        0.567333    0.767333    0.367333     0.006663
NI        0.567333    0.800667    0.400667     0.004307
NI        0.600667    0.767333    0.400667     0.004307
CU        0.600667    0.800667    0.367333     0.006663
NI        0.634000    0.767333    0.367333     0.004307
NI        0.634000    0.800667    0.400667     0.004307
NI        0.667333    0.767333    0.400667     0.004307
CU        0.667333    0.800667    0.367333     0.006663
CU        0.700667    0.767333    0.367333     0.006663
CU        0.700667    0.800667    0.400667     0.006663
NI        0.734000    0.767333    0.400667     0.004307
NI        0.234000    0.834000    0.367333     0.004307
NI        0.267333    0.834000    0.400667     0.004307
CU        0.300667    0.834000    0.367333     0.006663
CU        0.300667    0.867333    0.400667     0.006663
NI        0.334000    0.834000    0.400667     0.004307
NI        0.334000    0.867333    0.367333     0.004307
CU        0.367333    0.834000    0.367333     0.006663
NI        0.367333    0.867333    0.400667     0.004307
CU        0.400667    0.834000    0.400667     0.006663
NI        0.400667    0.867333    0.367333     0.004307
NI        0.434000    0.834000    0.367333     0.004307
NI        0.434000    0.867333    0.400667     0.004307
CU        0.467333    0.834000    0.400667     0.006663
NI        0.467333    0.867333    0.367333     0.004307
NI        0.500667    0.834000    0.367333     0.004307
CU        0.500667    0.867333    0.400667     0.006663
NI        0.534000    0.834000    0.400667     0.004307
CU        0.534000    0.867333    0.367333     0.006663
NI        0.567333    0.834000    0.367333     0.004307
CU        0.567333    0.867333    0.400667     0.006663
CU        0.600667    0.834000    0.400667     0.006663
CU        0.634000    0.834000    0.367333     0.006663
CU        0.300667    0.000667    0.467333     0.006663
NI        0.334000    0.000667    0.434000     0.004307
CU        0.367333    0.000667    0.467333     0.006663
CU        0.400667    0.000667    0.434000     0.006663
CU        0.434000    0.000667    0.467333     0.006663
CU        0.467333    0.000667    0.434000     0.006663
NI        0.500667    0.000667    0.467333     0.004307
CU        0.534000    0.000667    0.434000     0.006663
CU        0.567333    0.000667    0.467333     0.006663
NI        0.167333    0.067333    0.467333     0.004307
CU        0.200667    0.067333    0.434000     0.006663
CU        0.234000    0.034000    0.434000     0.006663
NI        0.234000    0.067333    0.467333     0.004307
NI        0.267333    0.034000    0.467333     0.004307
NI        0.267333    0.067333    0.434000     0.004307
CU        0.300667    0.034000    0.434000     0.006663
NI        0.300667    0.067333    0.467333     0.004307
NI        0.334000    0.034000    0.467333     0.004307
CU        0.334000    0.067333    0.434000     0.006663
CU        0.367333    0.034000    0.434000     0.006663
CU        0.367333    0.067333    0.467333     0.006663
NI        0.400667    0.034000    0.467333     0.004307
CU        0.400667    0.067333    0.434000     0.006663
NI        0.434000    0.034000    0.434000     0.004307
CU        0.434000    0.067333    0.467333     0.006663
CU        0.467333    0.034000    0.467333     0.006663
CU        0.467333    0.067333    0.434000     0.006663
CU        0.500667    0.034000    0.434000     0.006663
CU        0.500667    0.067333    0.467333     0.006663
NI        0.534000    0.034000    0.467333     0.004307
CU        0.534000    0.067333    0.434000     0.006663
CU        0.567333    0.034000    0.434000     0.006663
CU        0.567333    0.067333    0.467333     0.006663
CU        0.600667    0.034000    0.467333     0.006663
NI        0.600667    0.067333    0.434000     0.004307
CU        0.634000    0.034000    0.434000     0.006663
NI        0.634000    0.067333    0.467333     0.004307
NI        0.667333    0.067333    0.434000     0.004307
CU        0.700667    0.067333    0.467333     0.006663
CU        0.100667    0.134000    0.467333     0.006663
CU        0.134000    0.100667    0.467333     0.006663
CU        0.134000    0.134000    0.434000     0.006663
CU        0.167333    0.100667    0.434000     0.006663
NI        0.167333    0.134000    0.467333     0.004307
CU        0.200667    0.100667    0.467333     0.006663
CU        0.200667    0.134000    0.434000     0.006663
NI        0.234000    0.100667    0.434000     0.004307
NI        0.234000    0.134000    0.467333     0.004307
CU        0.267333    0.100667    0.467333     0.006663
CU        0.267333    0.134000    0.434000     0.006663
CU        0.300667    0.100667    0.434000     0.006663
NI        0.300667    0.134000    0.467333     0.004307
NI        0.334000    0.100667    0.467333     0.004307
CU        0.334000    0.134000    0.434000     0.006663
CU        0.367333    0.100667    0.434000     0.006663
CU        0.367333    0.134000    0.467333     0.006663
NI        0.400667    0.100667    0.467333     0.004307
CU        0.400667    0.134000    0.434000     0.006663
NI        0.434000    0.100667    0.434000     0.004307
NI        0.434000    0.134000    0.467333     0.004307
NI        0.467333    0.100667    0.467333     0.004307
NI        0.467333    0.134000    0.434000     0.004307
CU        0.500667    0.100667    0.434000     0.006663
CU        0.500667    0.134000    0.467333     0.006663
NI        0.534000    0.100667    0.467333     0.004307
CU        0.534000    0.134000    0.434000     0.006663
CU        0.567333    0.100667    0.434000     0.006663
NI        0.567333    0.134000    0.467333     0.004307
NI        0.600667    0.100667    0.467333     0.004307
CU        0.600667    0.134000    0.434000     0.006663
NI        0.634000    0.100667    0.434000     0.004307
CU        0.634000    0.134000    0.467333     0.006663
CU        0.667333    0.100667    0.467333     0.006663
CU        0.667333    0.134000    0.434000     0.006663
CU        0.700667    0.100667    0.434000     0.006663
NI        0.700667    0.134000    0.467333     0.004307
NI        0.734000    0.100667    0.467333     0.004307
NI        0.734000    0.134000    0.434000     0.004307
CU        0.767333    0.134000    0.467333     0.006663
NI        0.067333    0.167333    0.467333     0.004307
CU        0.067333    0.200667    0.434000     0.006663
CU        0.100667    0.167333    0.434000     0.006663
CU        0.100667    0.200667    0.467333     0.006663
CU        0.134000    0.167333    0.467333     0.006663
NI        0.134000    0.200667    0.434000     0.004307
CU        0.167333    0.167333    0.434000     0.006663
NI        0.167333    0.200667    0.467333     0.004307
NI        0.200667    0.167333    0.467333     0.004307
NI        0.200667    0.200667    0.434000     0.004307
CU        0.234000    0.167333    0.434000     0.006663
CU        0.234000    0.200667    0.467333     0.006663
NI        0.267333    0.167333    0.467333     0.004307
NI        0.267333    0.200667    0.434000     0.004307
NI        0.300667    0.167333    0.434000     0.004307
CU        0.300667    0.200667    0.467333     0.006663
NI        0.334000    0.167333    0.467333     0.004307
CU        0.334000    0.200667    0.434000     0.006663
CU        0.367333    0.167333    0.434000     0.006663
NI        0.367333    0.200667    0.467333     0.004307
CU        0.400667    0.167333    0.467333     0.006663
NI        0.400667    0.200667    0.434000     0.004307
NI        0.434000    0.167333    0.434000     0.004307
NI        0.434000    0.200667    0.467333     0.004307
CU        0.467333    0.167333    0.467333     0.006663
NI        0.467333    0.200667    0.434000     0.004307
NI        0.500667    0.167333    0.434000     0.004307
CU        0.500667    0.200667    0.467333     0.006663
NI        0.534000    0.167333    0.467333     0.004307
NI        0.534000    0.200667    0.434000     0.004307
NI        0.567333    0.167333    0.434000     0.004307
NI        0.567333    0.200667    0.467333     0.004307
CU        0.600667    0.167333    0.467333     0.006663
CU        0.600667    0.200667    0.434000     0.006663
CU        0.634000    0.167333    0.434000     0.006663
CU        0.634000    0.200667    0.467333     0.006663
NI        0.667333    0.167333    0.467333     0.004307
NI        0.667333    0.200667    0.434000     0.004307
CU        0.700667    0.167333    0.434000     0.006663
CU        0.700667    0.200667    0.467333     0.006663
NI        0.734000    0.167333    0.467333     0.004307
NI        0.734000    0.200667    0.434000     0.004307
NI        0.767333    0.167333    0.434000     0.004307
CU        0.767333    0.200667    0.467333     0.006663
NI        0.800667    0.167333    0.467333     0.004307
NI        0.800667    0.200667    0.434000     0.004307
NI        0.034000    0.234000    0.434000     0.004307
NI        0.034000    0.267333    0.467333     0.004307
CU        0.067333    0.234000    0.467333     0.006663
NI        0.067333    0.267333    0.434000     0.004307
NI        0.100667    0.234000    0.434000     0.004307
NI        0.100667    0.267333    0.467333     0.004307
CU        0.134000    0.234000    0.467333     0.006663
NI        0.134000    0.267333    0.434000     0.004307
CU        0.167333    0.234000    0.434000     0.006663
CU        0.167333    0.267333    0.467333     0.006663
CU        0.200667    0.234000    0.467333     0.006663
CU        0.200667    0.267333    0.434000     0.006663
NI        0.234000    0.234000    0.434000     0.004307
CU        0.234000    0.267333    0.467333     0.006663
CU        0.267333    0.234000    0.467333     0.006663
CU        0.267333    0.267333    0.434000     0.006663
NI        0.300667    0.234000    0.434000     0.004307
CU        0.300667    0.267333    0.467333     0.006663
CU        0.334000    0.234000    0.467333     0.006663
CU        0.334000    0.267333    0.434000     0.006663
CU        0.367333    0.234000    0.434000     0.006663
CU        0.367333    0.267333    0.467333     0.006663
NI        0.400667    0.234000    0.467333     0.004307
CU        0.400667    0.267333    0.434000     0.006663
CU        0.434000    0.234000    0.434000     0.006663
CU        0.434000    0.267333    0.467333     0.006663
CU        0.467333    0.234000    0.467333     0.006663
NI        0.467333    0.267333    0.434000     0.004307
CU        0.500667    0.234000    0.434000     0.006663
CU        0.500667    0.267333    0.467333     0.006663
CU        0.534000    0.234000    0.467333     0.006663
NI        0.534000    0.267333    0.434000     0.004307
NI        0.567333    0.234000    0.434000     0.004307
NI        0.567333    0.267333    0.467333     0.004307
NI        0.600667    0.234000    0.467333     0.004307
NI        0.600667    0.267333    0.434000     0.004307
NI        0.634000    0.234000    0.434000     0.004307
CU        0.634000    0.267333    0.467333     0.006663
NI        0.667333    0.234000    0.467333     0.004307
CU        0.667333    0.267333    0.434000     0.006663
CU        0.700667    0.234000    0.434000     0.006663
NI        0.700667    0.267333    0.467333     0.004307
CU        0.734000    0.234000    0.467333     0.006663
CU        0.734000    0.267333    0.434000     0.006663
CU        0.767333    0.234000    0.434000     0.006663
CU        0.767333    0.267333    0.467333     0.006663
NI        0.800667    0.234000    0.467333     0.004307
CU        0.800667    0.267333    0.434000     0.006663
CU        0.834000    0.234000    0.434000     0.006663
NI        0.834000    0.267333    0.467333     0.004307
CU        0.000667    0.300667    0.467333     0.006663
CU        0.000667    0.334000    0.434000     0.006663
CU        0.034000    0.300667    0.434000     0.006663
NI        0.034000    0.334000    0.467333     0.004307
NI        0.067333    0.300667    0.467333     0.004307
CU        0.067333    0.334000    0.434000     0.006663
NI        0.100667    0.300667    0.434000     0.004307
CU        0.100667    0.334000    0.467333     0.006663
NI        0.134000    0.300667    0.467333     0.004307
CU        0.134000    0.334000    0.434000     0.006663
CU        0.167333    0.300667    0.434000     0.006663
NI        0.167333    0.334000    0.467333     0.004307
NI        0.200667    0.300667    0.467333     0.004307
CU        0.200667    0.334000    0.434000     0.006663
CU        0.234000    0.300667    0.434000     0.006663
NI        0.234000    0.334000    0.467333     0.004307
CU        0.267333    0.300667    0.467333     0.006663
NI        0.267333    0.334000    0.434000     0.004307
CU        0.300667    0.300667    0.434000     0.006663
CU        0.300667    0.334000    0.467333     0.006663
CU        0.334000    0.300667    0.467333     0.006663
NI        0.334000    0.334000    0.434000     0.004307
CU        0.367333    0.300667    0.434000     0.006663
NI        0.367333    0.334000    0.467333     0.004307
CU        0.400667    0.300667    0.467333     0.006663
NI        0.400667    0.334000    0.434000     0.004307
CU        0.434000    0.300667    0.434000     0.006663
CU        0.434000    0.334000    0.467333     0.006663
NI        0.467333    0.300667    0.467333     0.004307
NI        0.467333    0.334000    0.434000     0.004307
CU        0.500667    0.300667    0.434000     0.006663
NI        0.500667    0.334000    0.467333     0.004307
CU        0.534000    0.300667    0.467333     0.006663
NI        0.534000    0.334000    0.434000     0.004307
CU        0.567333    0.300667    0.434000     0.006663
CU        0.567333    0.334000    0.467333     0.006663
CU        0.600667    0.300667    0.467333     0.006663
NI        0.600667    0.334000    0.434000     0.004307
NI        0.634000    0.300667    0.434000     0.004307
CU        0.634000    0.334000    0.467333     0.006663
NI        0.667333    0.300667    0.467333     0.004307
NI        0.667333    0.334000    0.434000     0.004307
CU        0.700667    0.300667    0.434000     0.006663
NI        0.700667    0.334000    0.467333     0.004307
NI        0.734000    0.300667    0.467333     0.004307
NI        0.734000    0.334000    0.434000     0.004307
CU        0.767333    0.300667    0.434000     0.006663
NI        0.767333    0.334000    0.467333     0.004307
CU        0.800667    0.300667    0.467333     0.006663
CU        0.800667    0.334000    0.434000     0.006663
NI        0.834000    0.300667    0.434000     0.004307
CU        0.834000    0.334000    0.467333     0.006663
CU        0.867333    0.300667    0.467333     0.006663
NI        0.867333    0.334000    0.434000     0.004307
NI        0.000667    0.367333    0.467333     0.004307
CU        0.000667    0.400667    0.434000     0.006663
NI        0.034000    0.367333    0.434000     0.004307
NI        0.034000    0.400667    0.467333     0.004307
CU        0.067333    0.367333    0.467333     0.006663
NI        0.067333    0.400667    0.434000     0.004307
CU        0.100667    0.367333    0.434000     0.006663
NI        0.100667    0.400667    0.467333     0.004307
CU        0.134000    0.367333    0.467333     0.006663
CU        0.134000    0.400667    0.434000     0.006663
NI        0.167333    0.367333    0.434000     0.004307
NI        0.167333    0.400667    0.467333     0.004307
CU        0.200667    0.367333    0.467333     0.006663
CU        0.200667    0.400667    0.434000     0.006663
NI        0.234000    0.367333    0.434000     0.004307
CU        0.234000    0.400667    0.467333     0.006663
NI        0.267333    0.367333    0.467333     0.004307
CU        0.267333    0.400667    0.434000     0.006663
NI        0.300667    0.367333    0.434000     0.004307
NI        0.300667    0.400667    0.467333     0.004307
NI        0.334000    0.367333    0.467333     0.004307
CU        0.334000    0.400667    0.434000     0.006663
NI        0.367333    0.367333    0.434000     0.004307
CU        0.367333    0.400667    0.467333     0.006663
NI        0.400667    0.367333    0.467333     0.004307
NI        0.400667    0.400667    0.434000     0.004307
CU        0.434000    0.367333    0.434000     0.006663
NI        0.434000    0.400667    0.467333     0.004307
CU        0.467333    0.367333    0.467333     0.006663
CU        0.467333    0.400667    0.434000     0.006663
CU        0.500667    0.367333    0.434000     0.006663
NI        0.500667    0.400667    0.467333     0.004307
NI        0.534000    0.367333    0.467333     0.004307
CU        0.534000    0.400667    0.434000     0.006663
CU        0.567333    0.367333    0.434000     0.006663
CU        0.567333    0.400667    0.467333     0.006663
CU        0.600667    0.367333    0.467333     0.006663
CU        0.600667    0.400667    0.434000     0.006663
CU        0.634000    0.367333    0.434000     0.006663
CU        0.634000    0.400667    0.467333     0.006663
NI        0.667333    0.367333    0.467333     0.004307
NI        0.667333    0.400667    0.434000     0.004307
NI        0.700667    0.367333    0.434000     0.004307
CU        0.700667    0.400667    0.467333     0.006663
CU        0.734000    0.367333    0.467333     0.006663
CU        0.734000    0.400667    0.434000     0.006663
NI        0.767333    0.367333    0.434000     0.004307
CU        0.767333    0.400667    0.467333     0.006663
NI        0.800667    0.367333    0.467333     0.004307
CU        0.800667    0.400667    0.434000     0.006663
CU        0.834000    0.367333    0.434000     0.006663
CU        0.834000    0.400667    0.467333     0.006663
NI        0.867333    0.367333    0.467333     0.004307
NI        0.867333    0.400667    0.434000     0.004307
NI        0.000667    0.434000    0.467333     0.004307
CU        0.000667    0.467333    0.434000     0.006663
CU        0.034000    0.434000    0.434000     0.006663
NI        0.034000    0.467333    0.467333     0.004307
NI        0.067333    0.434000    0.467333     0.004307
CU        0.067333    0.467333    0.434000     0.006663
NI        0.100667    0.434000    0.434000     0.004307
NI        0.100667    0.467333    0.467333     0.004307
CU        0.134000    0.434000    0.467333     0.006663
NI        0.134000    0.467333    0.434000     0.004307
NI        0.167333    0.434000    0.434000     0.004307
NI        0.167333    0.467333    0.467333     0.004307
NI        0.200667    0.434000    0.467333     0.004307
CU        0.200667    0.467333    0.434000     0.006663
CU        0.234000    0.434000    0.434000     0.006663
CU        0.234000    0.467333    0.467333     0.006663
CU        0.267333    0.434000    0.467333     0.006663
CU        0.267333    0.467333    0.434000     0.006663
NI        0.300667    0.434000    0.434000     0.004307
NI        0.300667    0.467333    0.467333     0.004307
CU        0.334000    0.434000    0.467333     0.006663
CU        0.334000    0.467333    0.434000     0.006663
CU        0.367333    0.434000    0.434000     0.006663
NI        0.367333    0.467333    0.467333     0.004307
CU        0.400667    0.434000    0.467333     0.006663
NI        0.400667    0.467333    0.434000     0.004307
NI        0.434000    0.434000    0.434000     0.004307
CU        0.434000    0.467333    0.467333     0.006663
CU        0.467333    0.434000    0.467333     0.006663
NI        0.467333    0.467333    0.434000     0.004307
CU        0.500667    0.434000    0.434000     0.006663
CU        0.500667    0.467333    0.467333     0.006663
CU        0.534000    0.434000    0.467333     0.006663
CU        0.534000    0.467333    0.434000     0.006663
CU        0.567333    0.434000    0.434000     0.006663
CU        0.567333    0.467333    0.467333     0.006663
NI        0.600667    0.434000    0.467333     0.004307
CU        0.600667    0.467333    0.434000     0.006663
CU        0.634000    0.434000    0.434000     0.006663
NI        0.634000    0.467333    0.467333     0.004307
CU        0.667333    0.434000    0.467333     0.006663
CU        0.667333    0.467333    0.434000     0.006663
NI        0.700667    0.434000    0.434000     0.004307
NI        0.700667    0.467333    0.467333     0.004307
NI        0.734000    0.434000    0.467333     0.004307
CU        0.734000    0.467333    0.434000     0.006663
CU        0.767333    0.434000    0.434000     0.006663
CU        0.767333    0.467333    0.467333     0.006663
CU        0.800667    0.434000    0.467333     0.006663
CU        0.800667    0.467333    0.434000     0.006663
CU        0.834000    0.434000    0.434000     0.006663
NI        0.834000    0.467333    0.467333     0.004307
NI        0.867333    0.434000    0.467333     0.004307
NI        0.867333    0.467333    0.434000     0.004307
NI        0.000667    0.500667    0.467333     0.004307
NI        0.000667    0.534000    0.434000     0.004307
CU        0.034000    0.500667    0.434000     0.006663
NI        0.034000    0.534000    0.467333     0.004307
NI        0.067333    0.500667    0.467333     0.004307
CU        0.067333    0.534000    0.434000     0.006663
CU        0.100667    0.500667    0.434000     0.006663
NI        0.100667    0.534000    0.467333     0.004307
NI        0.134000    0.500667    0.467333     0.004307
NI        0.134000    0.534000    0.434000     0.004307
CU        0.167333    0.500667    0.434000     0.006663
CU        0.167333    0.534000    0.467333     0.006663
CU        0.200667    0.500667    0.467333     0.006663
NI        0.200667    0.534000    0.434000     0.004307
CU        0.234000    0.500667    0.434000     0.006663
NI        0.234000    0.534000    0.467333     0.004307
NI        0.267333    0.500667    0.467333     0.004307
NI        0.267333    0.534000    0.434000     0.004307
CU        0.300667    0.500667    0.434000     0.006663
CU        0.300667    0.534000    0.467333     0.006663
NI        0.334000    0.500667    0.467333     0.004307
NI        0.334000    0.534000    0.434000     0.004307
NI        0.367333    0.500667    0.434000     0.004307
NI        0.367333    0.534000    0.467333     0.004307
NI        0.400667    0.500667    0.467333     0.004307
NI        0.400667    0.534000    0.434000     0.004307
NI        0.434000    0.500667    0.434000     0.004307
NI        0.434000    0.534000    0.467333     0.004307
NI        0.467333    0.500667    0.467333     0.004307
CU        0.467333    0.534000    0.434000     0.006663
CU        0.500667    0.500667    0.434000     0.006663
NI        0.500667    0.534000    0.467333     0.004307
CU        0.534000    0.500667    0.467333     0.006663
CU        0.534000    0.534000    0.434000     0.006663
NI        0.567333    0.500667    0.434000     0.004307
CU        0.567333    0.534000    0.467333     0.006663
NI        0.600667    0.500667    0.467333     0.004307
NI        0.600667    0.534000    0.434000     0.004307
CU        0.634000    0.500667    0.434000     0.006663
NI        0.634000    0.534000    0.467333     0.004307
CU        0.667333    0.500667    0.467333     0.006663
NI        0.667333    0.534000    0.434000     0.004307
NI        0.700667    0.500667    0.434000     0.004307
NI        0.700667    0.534000    0.467333     0.004307
NI        0.734000    0.500667    0.467333     0.004307
NI        0.734000    0.534000    0.434000     0.004307
NI        0.767333    0.500667    0.434000     0.004307
NI        0.767333    0.534000    0.467333     0.004307
NI        0.800667    0.500667    0.467333     0.004307
NI        0.800667    0.534000    0.434000     0.004307
CU        0.834000    0.500667    0.434000     0.006663
CU        0.834000    0.534000    0.467333     0.006663
NI        0.867333    0.500667    0.467333     0.004307
CU        0.867333    0.534000    0.434000     0.006663
NI        0.000667    0.567333    0.467333     0.004307
CU        0.034000    0.567333    0.434000     0.006663
CU        0.034000    0.600667    0.467333     0.006663
CU        0.067333    0.567333    0.467333     0.006663
NI        0.067333    0.600667    0.434000     0.004307
CU        0.100667    0.567333    0.434000     0.006663
NI        0.100667    0.600667    0.467333     0.004307
CU        0.134000    0.567333    0.467333     0.006663
CU        0.134000    0.600667    0.434000     0.006663
CU        0.167333    0.567333    0.434000     0.006663
CU        0.167333    0.600667    0.467333     0.006663
NI        0.200667    0.567333    0.467333     0.004307
CU        0.200667    0.600667    0.434000     0.006663
CU        0.234000    0.567333    0.434000     0.006663
CU        0.234000    0.600667    0.467333     0.006663
NI        0.267333    0.567333    0.467333     0.004307
CU        0.267333    0.600667    0.434000     0.006663
NI        0.300667    0.567333    0.434000     0.004307
NI        0.300667    0.600667    0.467333     0.004307
CU        0.334000    0.567333    0.467333     0.006663
CU        0.334000    0.600667    0.434000     0.006663
NI        0.367333    0.567333    0.434000     0.004307
NI        0.367333    0.600667    0.467333     0.004307
CU        0.400667    0.567333    0.467333     0.006663
CU        0.400667    0.600667    0.434000     0.006663
NI        0.434000    0.567333    0.434000     0.004307
NI        0.434000    0.600667    0.467333     0.004307
CU        0.467333    0.567333    0.467333     0.006663
CU        0.467333    0.600667    0.434000     0.006663
NI        0.500667    0.567333    0.434000     0.004307
CU        0.500667    0.600667    0.467333     0.006663
NI        0.534000    0.567333    0.467333     0.004307
CU        0.534000    0.600667    0.434000     0.006663
CU        0.567333    0.567333    0.434000     0.006663
NI        0.567333    0.600667    0.467333     0.004307
CU        0.600667    0.567333    0.467333     0.006663
CU        0.600667    0.600667    0.434000     0.006663
CU        0.634000    0.567333    0.434000     0.006663
CU        0.634000    0.600667    0.467333     0.006663
NI        0.667333    0.567333    0.467333     0.004307
CU        0.667333    0.600667    0.434000     0.006663
NI        0.700667    0.567333    0.434000     0.004307
NI        0.700667    0.600667    0.467333     0.004307
NI        0.734000    0.567333    0.467333     0.004307
NI        0.734000    0.600667    0.434000     0.004307
CU        0.767333    0.567333    0.434000     0.006663
NI        0.767333    0.600667    0.467333     0.004307
CU        0.800667    0.567333    0.467333     0.006663
CU        0.800667    0.600667    0.434000     0.006663
NI        0.834000    0.567333    0.434000     0.004307
NI        0.834000    0.600667    0.467333     0.004307
NI        0.867333    0.567333    0.467333     0.004307
NI        0.034000    0.634000    0.434000     0.004307
NI        0.067333    0.634000    0.467333     0.004307
CU        0.067333    0.667333    0.434000     0.006663
NI        0.100667    0.634000    0.434000     0.004307
NI        0.100667    0.667333    0.467333     0.004307
CU        0.134000    0.634000    0.467333     0.006663
NI        0.134000    0.667333    0.434000     0.004307
CU        0.167333    0.634000    0.434000     0.006663
CU        0.167333    0.667333    0.467333     0.006663
NI        0.200667    0.634000    0.467333     0.004307
NI        0.200667    0.667333    0.434000     0.004307
NI        0.234000    0.634000    0.434000     0.004307
CU        0.234000    0.667333    0.467333     0.006663
CU        0.267333    0.634000    0.467333     0.006663
CU        0.267333    0.667333    0.434000     0.006663
NI        0.300667    0.634000    0.434000     0.004307
CU        0.300667    0.667333    0.467333     0.006663
CU        0.334000    0.634000    0.467333     0.006663
CU        0.334000    0.667333    0.434000     0.006663
NI        0.367333    0.634000    0.434000     0.004307
CU        0.367333    0.667333    0.467333     0.006663
NI        0.400667    0.634000    0.467333     0.004307
NI        0.400667    0.667333    0.434000     0.004307
NI        0.434000    0.634000    0.434000     0.004307
CU        0.434000    0.667333    0.467333     0.006663
CU        0.467333    0.634000    0.467333     0.006663
CU        0.467333    0.667333    0.434000     0.006663
CU        0.500667    0.634000    0.434000     0.006663
CU        0.500667    0.667333    0.467333     0.006663
CU        0.534000    0.634000    0.467333     0.006663
CU        0.534000    0.667333    0.434000     0.006663
NI        0.567333    0.634000    0.434000     0.004307
NI        0.567333    0.667333    0.467333     0.004307
NI        0.600667    0.634000    0.467333     0.004307
NI        0.600667    0.667333    0.434000     0.004307
CU        0.634000    0.634000    0.434000     0.006663
CU        0.634000    0.667333    0.467333     0.006663
CU        0.667333    0.634000    0.467333     0.006663
CU        0.667333    0.667333    0.434000     0.006663
NI        0.700667    0.634000    0.434000     0.004307
NI        0.700667    0.667333    0.467333     0.004307
NI        0.734000    0.634000    0.467333     0.004307
CU        0.734000    0.667333    0.434000     0.006663
CU        0.767333    0.634000    0.434000     0.006663
NI        0.767333    0.667333    0.467333     0.004307
CU        0.800667    0.634000    0.467333     0.006663
NI        0.800667    0.667333    0.434000     0.004307
NI        0.834000    0.634000    0.434000     0.004307
CU        0.067333    0.700667    0.467333     0.006663
CU        0.100667    0.700667    0.434000     0.006663
NI        0.100667    0.734000    0.467333     0.004307
NI        0.134000    0.700667    0.467333     0.004307
CU        0.134000    0.734000    0.434000     0.006663
CU        0.167333    0.700667    0.434000     0.006663
CU        0.167333    0.734000    0.467333     0.006663
CU        0.200667    0.700667    0.467333     0.006663
CU        0.200667    0.734000    0.434000     0.006663
NI        0.234000    0.700667    0.434000     0.004307
CU        0.234000    0.734000    0.467333     0.006663
CU        0.267333    0.700667    0.467333     0.006663
NI        0.267333    0.734000    0.434000     0.004307
CU        0.300667    0.700667    0.434000     0.006663
NI        0.300667    0.734000    0.467333     0.004307
CU        0.334000    0.700667    0.467333     0.006663
NI        0.334000    0.734000    0.434000     0.004307
CU        0.367333    0.700667    0.434000     0.006663
NI        0.367333    0.734000    0.467333     0.004307
NI        0.400667    0.700667    0.467333     0.004307
NI        0.400667    0.734000    0.434000     0.004307
CU        0.434000    0.700667    0.434000     0.006663
NI        0.434000    0.734000    0.467333     0.004307
CU        0.467333    0.700667    0.467333     0.006663
NI        0.467333    0.734000    0.434000     0.004307
NI        0.500667    0.700667    0.434000     0.004307
CU        0.500667    0.734000    0.467333     0.006663
CU        0.534000    0.700667    0.467333     0.006663
CU        0.534000    0.734000    0.434000     0.006663
NI        0.567333    0.700667    0.434000     0.004307
CU        0.567333    0.734000    0.467333     0.006663
CU        0.600667    0.700667    0.467333     0.006663
NI        0.600667    0.734000    0.434000     0.004307
CU        0.634000    0.700667    0.434000     0.006663
CU        0.634000    0.734000    0.467333     0.006663
CU        0.667333    0.700667    0.467333     0.006663
CU        0.667333    0.734000    0.434000     0.006663
NI        0.700667    0.700667    0.434000     0.004307
CU        0.700667    0.734000    0.467333     0.006663
NI        0.734000    0.700667    0.467333     0.004307
NI        0.734000    0.734000    0.434000     0.004307
CU        0.767333    0.700667    0.434000     0.006663
CU        0.767333    0.734000    0.467333     0.006663
NI        0.800667    0.700667    0.467333     0.004307
CU        0.134000    0.767333    0.467333     0.006663
CU        0.167333    0.767333    0.434000     0.006663
CU        0.167333    0.800667    0.467333     0.006663
CU        0.200667    0.767333    0.467333     0.006663
CU        0.200667    0.800667    0.434000     0.006663
CU        0.234000    0.767333    0.434000     0.006663
NI        0.234000    0.800667    0.467333     0.004307
NI        0.267333    0.767333    0.467333     0.004307
CU        0.267333    0.800667    0.434000     0.006663
CU        0.300667    0.767333    0.434000     0.006663
NI        0.300667    0.800667    0.467333     0.004307
CU        0.334000    0.767333    0.467333     0.006663
CU        0.334000    0.800667    0.434000     0.006663
NI        0.367333    0.767333    0.434000     0.004307
CU        0.367333    0.800667    0.467333     0.006663
NI        0.400667    0.767333    0.467333     0.004307
NI        0.400667    0.800667    0.434000     0.004307
NI        0.434000    0.767333    0.434000     0.004307
NI        0.434000    0.800667    0.467333     0.004307
CU        0.467333    0.767333    0.467333     0.006663
NI        0.467333    0.800667    0.434000     0.004307
CU        0.500667    0.767333    0.434000     0.006663
CU        0.500667    0.800667    0.467333     0.006663
CU        0.534000    0.767333    0.467333     0.006663
NI        0.534000    0.800667    0.434000     0.004307
NI        0.567333    0.767333    0.434000     0.004307
CU        0.567333    0.800667    0.467333     0.006663
NI        0.600667    0.767333    0.467333     0.004307
CU        0.600667    0.800667    0.434000     0.006663
NI        0.634000    0.767333    0.434000     0.004307
NI        0.634000    0.800667    0.467333     0.004307
NI        0.667333    0.767333    0.467333     0.004307
CU        0.667333    0.800667    0.434000     0.006663
CU        0.700667    0.767333    0.434000     0.006663
CU        0.700667    0.800667    0.467333     0.006663
NI        0.734000    0.767333    0.467333     0.004307
CU        0.234000    0.834000    0.434000     0.006663
NI        0.267333    0.834000    0.467333     0.004307
NI        0.300667    0.834000    0.434000     0.004307
NI        0.300667    0.867333    0.467333     0.004307
CU        0.334000    0.834000    0.467333     0.006663
NI        0.334000    0.867333    0.434000     0.004307
CU        0.367333    0.834000    0.434000     0.006663
NI        0.367333    0.867333    0.467333     0.004307
NI        0.400667    0.834000    0.467333     0.004307
CU        0.400667    0.867333    0.434000     0.006663
CU        0.434000    0.834000    0.434000     0.006663
NI        0.434000    0.867333    0.467333     0.004307
CU        0.467333    0.834000    0.467333     0.006663
NI        0.467333    0.867333    0.434000     0.004307
CU        0.500667    0.834000    0.434000     0.006663
CU        0.500667    0.867333    0.467333     0.006663
CU        0.534000    0.834000    0.467333     0.006663
CU        0.534000    0.867333    0.434000     0.006663
NI        0.567333    0.834000    0.434000     0.004307
NI        0.567333    0.867333    0.467333     0.004307
NI        0.600667    0.834000    0.467333     0.004307
CU        0.634000    0.834000    0.434000     0.006663
NI        0.334000    0.000667    0.500667     0.004307
NI        0.367333    0.000667    0.534000     0.004307
CU        0.400667    0.000667    0.500667     0.006663
CU        0.434000    0.000667    0.534000     0.006663
CU        0.467333    0.000667    0.500667     0.006663
NI        0.500667    0.000667    0.534000     0.004307
CU        0.534000    0.000667    0.500667     0.006663
NI        0.200667    0.067333    0.500667     0.004307
NI        0.234000    0.034000    0.500667     0.004307
NI        0.234000    0.067333    0.534000     0.004307
NI        0.267333    0.034000    0.534000     0.004307
CU        0.267333    0.067333    0.500667     0.006663
NI        0.300667    0.034000    0.500667     0.004307
NI        0.300667    0.067333    0.534000     0.004307
CU        0.334000    0.034000    0.534000     0.006663
CU        0.334000    0.067333    0.500667     0.006663
NI        0.367333    0.034000    0.500667     0.004307
CU        0.367333    0.067333    0.534000     0.006663
CU        0.400667    0.034000    0.534000     0.006663
CU        0.400667    0.067333    0.500667     0.006663
CU        0.434000    0.034000    0.500667     0.006663
NI        0.434000    0.067333    0.534000     0.004307
CU        0.467333    0.034000    0.534000     0.006663
NI        0.467333    0.067333    0.500667     0.004307
CU        0.500667    0.034000    0.500667     0.006663
CU        0.500667    0.067333    0.534000     0.006663
CU        0.534000    0.034000    0.534000     0.006663
CU        0.534000    0.067333    0.500667     0.006663
CU        0.567333    0.034000    0.500667     0.006663
CU        0.567333    0.067333    0.534000     0.006663
NI        0.600667    0.034000    0.534000     0.004307
CU        0.600667    0.067333    0.500667     0.006663
NI        0.634000    0.034000    0.500667     0.004307
CU        0.634000    0.067333    0.534000     0.006663
NI        0.667333    0.067333    0.500667     0.004307
NI        0.100667    0.134000    0.534000     0.004307
CU        0.134000    0.100667    0.534000     0.006663
CU        0.134000    0.134000    0.500667     0.006663
CU        0.167333    0.100667    0.500667     0.006663
CU        0.167333    0.134000    0.534000     0.006663
NI        0.200667    0.100667    0.534000     0.004307
NI        0.200667    0.134000    0.500667     0.004307
NI        0.234000    0.100667    0.500667     0.004307
CU        0.234000    0.134000    0.534000     0.006663
NI        0.267333    0.100667    0.534000     0.004307
NI        0.267333    0.134000    0.500667     0.004307
CU        0.300667    0.100667    0.500667     0.006663
NI        0.300667    0.134000    0.534000     0.004307
CU        0.334000    0.100667    0.534000     0.006663
CU        0.334000    0.134000    0.500667     0.006663
NI        0.367333    0.100667    0.500667     0.004307
CU        0.367333    0.134000    0.534000     0.006663
CU        0.400667    0.100667    0.534000     0.006663
CU        0.400667    0.134000    0.500667     0.006663
CU        0.434000    0.100667    0.500667     0.006663
NI        0.434000    0.134000    0.534000     0.004307
CU        0.467333    0.100667    0.534000     0.006663
NI        0.467333    0.134000    0.500667     0.004307
CU        0.500667    0.100667    0.500667     0.006663
NI        0.500667    0.134000    0.534000     0.004307
CU        0.534000    0.100667    0.534000     0.006663
CU        0.534000    0.134000    0.500667     0.006663
NI        0.567333    0.100667    0.500667     0.004307
CU        0.567333    0.134000    0.534000     0.006663
CU        0.600667    0.100667    0.534000     0.006663
NI        0.600667    0.134000    0.500667     0.004307
NI        0.634000    0.100667    0.500667     0.004307
CU        0.634000    0.134000    0.534000     0.006663
NI        0.667333    0.100667    0.534000     0.004307
CU        0.667333    0.134000    0.500667     0.006663
NI        0.700667    0.100667    0.500667     0.004307
NI        0.700667    0.134000    0.534000     0.004307
NI        0.734000    0.100667    0.534000     0.004307
CU        0.734000    0.134000    0.500667     0.006663
NI        0.767333    0.134000    0.534000     0.004307
NI        0.067333    0.200667    0.500667     0.004307
NI        0.100667    0.167333    0.500667     0.004307
NI        0.100667    0.200667    0.534000     0.004307
CU        0.134000    0.167333    0.534000     0.006663
CU        0.134000    0.200667    0.500667     0.006663
CU        0.167333    0.167333    0.500667     0.006663
CU        0.167333    0.200667    0.534000     0.006663
CU        0.200667    0.167333    0.534000     0.006663
CU        0.200667    0.200667    0.500667     0.006663
NI        0.234000    0.167333    0.500667     0.004307
NI        0.234000    0.200667    0.534000     0.004307
CU        0.267333    0.167333    0.534000     0.006663
NI        0.267333    0.200667    0.500667     0.004307
NI        0.300667    0.167333    0.500667     0.004307
NI        0.300667    0.200667    0.534000     0.004307
CU        0.334000    0.167333    0.534000     0.006663
NI        0.334000    0.200667    0.500667     0.004307
CU        0.367333    0.167333    0.500667     0.006663
CU        0.367333    0.200667    0.534000     0.006663
CU        0.400667    0.167333    0.534000     0.006663
CU        0.400667    0.200667    0.500667     0.006663
CU        0.434000    0.167333    0.500667     0.006663
NI        0.434000    0.200667    0.534000     0.004307
CU        0.467333    0.167333    0.534000     0.006663
CU        0.467333    0.200667    0.500667     0.006663
NI        0.500667    0.167333    0.500667     0.004307
NI        0.500667    0.200667    0.534000     0.004307
NI        0.534000    0.167333    0.534000     0.004307
CU        0.534000    0.200667    0.500667     0.006663
CU        0.567333    0.167333    0.500667     0.006663
NI        0.567333    0.200667    0.534000     0.004307
CU        0.600667    0.167333    0.534000     0.006663
CU        0.600667    0.200667    0.500667     0.006663
CU        0.634000    0.167333    0.500667     0.006663
CU        0.634000    0.200667    0.534000     0.006663
NI        0.667333    0.167333    0.534000     0.004307
CU        0.667333    0.200667    0.500667     0.006663
NI        0.700667    0.167333    0.500667     0.004307
NI        0.700667    0.200667    0.534000     0.004307
NI        0.734000    0.167333    0.534000     0.004307
NI        0.734000    0.200667    0.500667     0.004307
CU        0.767333    0.167333    0.500667     0.006663
CU        0.767333    0.200667    0.534000     0.006663
NI        0.800667    0.200667    0.500667     0.004307
CU        0.034000    0.234000    0.500667     0.006663
NI        0.034000    0.267333    0.534000     0.004307
CU        0.067333    0.234000    0.534000     0.006663
NI        0.067333    0.267333    0.500667     0.004307
CU        0.100667    0.234000    0.500667     0.006663
CU        0.100667    0.267333    0.534000     0.006663
NI        0.134000    0.234000    0.534000     0.004307
NI        0.134000    0.267333    0.500667     0.004307
NI        0.167333    0.234000    0.500667     0.004307
CU        0.167333    0.267333    0.534000     0.006663
CU        0.200667    0.234000    0.534000     0.006663
NI        0.200667    0.267333    0.500667     0.004307
NI        0.234000    0.234000    0.500667     0.004307
NI        0.234000    0.267333    0.534000     0.004307
CU        0.267333    0.234000    0.534000     0.006663
CU        0.267333    0.267333    0.500667     0.006663
CU        0.300667    0.234000    0.500667     0.006663
CU        0.300667    0.267333    0.534000     0.006663
CU        0.334000    0.234000    0.534000     0.006663
NI        0.334000    0.267333    0.500667     0.004307
NI        0.367333    0.234000    0.500667     0.004307
CU        0.367333    0.267333    0.534000     0.006663
NI        0.400667    0.234000    0.534000     0.004307
CU        0.400667    0.267333    0.500667     0.006663
CU        0.434000    0.234000    0.500667     0.006663
CU        0.434000    0.267333    0.534000     0.006663
CU        0.467333    0.234000    0.534000     0.006663
NI        0.467333    0.267333    0.500667     0.004307
CU        0.500667    0.234000    0.500667     0.006663
NI        0.500667    0.267333    0.534000     0.004307
NI        0.534000    0.234000    0.534000     0.004307
CU        0.534000    0.267333    0.500667     0.006663
NI        0.567333    0.234000    0.500667     0.004307
CU        0.567333    0.267333    0.534000     0.006663
CU        0.600667    0.234000    0.534000     0.006663
CU        0.600667    0.267333    0.500667     0.006663
CU        0.634000    0.234000    0.500667     0.006663
CU        0.634000    0.267333    0.534000     0.006663
CU        0.667333    0.234000    0.534000     0.006663
CU        0.667333    0.267333    0.500667     0.006663
CU        0.700667    0.234000    0.500667     0.006663
CU        0.700667    0.267333    0.534000     0.006663
NI        0.734000    0.234000    0.534000     0.004307
CU        0.734000    0.267333    0.500667     0.006663
CU        0.767333    0.234000    0.500667     0.006663
CU        0.767333    0.267333    0.534000     0.006663
NI        0.800667    0.234000    0.534000     0.004307
CU        0.800667    0.267333    0.500667     0.006663
CU        0.834000    0.234000    0.500667     0.006663
CU        0.834000    0.267333    0.534000     0.006663
CU        0.000667    0.334000    0.500667     0.006663
NI        0.034000    0.300667    0.500667     0.004307
NI        0.034000    0.334000    0.534000     0.004307
CU        0.067333    0.300667    0.534000     0.006663
CU        0.067333    0.334000    0.500667     0.006663
NI        0.100667    0.300667    0.500667     0.004307
NI        0.100667    0.334000    0.534000     0.004307
CU        0.134000    0.300667    0.534000     0.006663
CU        0.134000    0.334000    0.500667     0.006663
CU        0.167333    0.300667    0.500667     0.006663
NI        0.167333    0.334000    0.534000     0.004307
CU        0.200667    0.300667    0.534000     0.006663
CU        0.200667    0.334000    0.500667     0.006663
NI        0.234000    0.300667    0.500667     0.004307
CU        0.234000    0.334000    0.534000     0.006663
CU        0.267333    0.300667    0.534000     0.006663
CU        0.267333    0.334000    0.500667     0.006663
NI        0.300667    0.300667    0.500667     0.004307
CU        0.300667    0.334000    0.534000     0.006663
NI        0.334000    0.300667    0.534000     0.004307
NI        0.334000    0.334000    0.500667     0.004307
CU        0.367333    0.300667    0.500667     0.006663
NI        0.367333    0.334000    0.534000     0.004307
CU        0.400667    0.300667    0.534000     0.006663
NI        0.400667    0.334000    0.500667     0.004307
CU        0.434000    0.300667    0.500667     0.006663
CU        0.434000    0.334000    0.534000     0.006663
NI        0.467333    0.300667    0.534000     0.004307
CU        0.467333    0.334000    0.500667     0.006663
CU        0.500667    0.300667    0.500667     0.006663
CU        0.500667    0.334000    0.534000     0.006663
NI        0.534000    0.300667    0.534000     0.004307
CU        0.534000    0.334000    0.500667     0.006663
NI        0.567333    0.300667    0.500667     0.004307
NI        0.567333    0.334000    0.534000     0.004307
CU        0.600667    0.300667    0.534000     0.006663
CU        0.600667    0.334000    0.500667     0.006663
CU        0.634000    0.300667    0.500667     0.006663
CU        0.634000    0.334000    0.534000     0.006663
NI        0.667333    0.300667    0.534000     0.004307
CU        0.667333    0.334000    0.500667     0.006663
CU        0.700667    0.300667    0.500667     0.006663
NI        0.700667    0.334000    0.534000     0.004307
CU        0.734000    0.300667    0.534000     0.006663
NI        0.734000    0.334000    0.500667     0.004307
NI        0.767333    0.300667    0.500667     0.004307
CU        0.767333    0.334000    0.534000     0.006663
CU        0.800667    0.300667    0.534000     0.006663
NI        0.800667    0.334000    0.500667     0.004307
CU        0.834000    0.300667    0.500667     0.006663
CU        0.834000    0.334000    0.534000     0.006663
NI        0.867333    0.334000    0.500667     0.004307
CU        0.000667    0.367333    0.534000     0.006663
NI        0.000667    0.400667    0.500667     0.004307
CU        0.034000    0.367333    0.500667     0.006663
NI        0.034000    0.400667    0.534000     0.004307
CU        0.067333    0.367333    0.534000     0.006663
NI        0.067333    0.400667    0.500667     0.004307
CU        0.100667    0.367333    0.500667     0.006663
NI        0.100667    0.400667    0.534000     0.004307
NI        0.134000    0.367333    0.534000     0.004307
NI        0.134000    0.400667    0.500667     0.004307
CU        0.167333    0.367333    0.500667     0.006663
NI        0.167333    0.400667    0.534000     0.004307
CU        0.200667    0.367333    0.534000     0.006663
CU        0.200667    0.400667    0.500667     0.006663
NI        0.234000    0.367333    0.500667     0.004307
CU        0.234000    0.400667    0.534000     0.006663
CU        0.267333    0.367333    0.534000     0.006663
NI        0.267333    0.400667    0.500667     0.004307
NI        0.300667    0.367333    0.500667     0.004307
NI        0.300667    0.400667    0.534000     0.004307
NI        0.334000    0.367333    0.534000     0.004307
NI        0.334000    0.400667    0.500667     0.004307
NI        0.367333    0.367333    0.500667     0.004307
CU        0.367333    0.400667    0.534000     0.006663
NI        0.400667    0.367333    0.534000     0.004307
CU        0.400667    0.400667    0.500667     0.006663
NI        0.434000    0.367333    0.500667     0.004307
CU        0.434000    0.400667    0.534000     0.006663
NI        0.467333    0.367333    0.534000     0.004307
CU        0.467333    0.400667    0.500667     0.006663
NI        0.500667    0.367333    0.500667     0.004307
CU        0.500667    0.400667    0.534000     0.006663
CU        0.534000    0.367333    0.534000     0.006663
NI        0.534000    0.400667    0.500667     0.004307
CU        0.567333    0.367333    0.500667     0.006663
CU        0.567333    0.400667    0.534000     0.006663
CU        0.600667    0.367333    0.534000     0.006663
CU        0.600667    0.400667    0.500667     0.006663
CU        0.634000    0.367333    0.500667     0.006663
CU        0.634000    0.400667    0.534000     0.006663
CU        0.667333    0.367333    0.534000     0.006663
CU        0.667333    0.400667    0.500667     0.006663
NI        0.700667    0.367333    0.500667     0.004307
CU        0.700667    0.400667    0.534000     0.006663
NI        0.734000    0.367333    0.534000     0.004307
NI        0.734000    0.400667    0.500667     0.004307
NI        0.767333    0.367333    0.500667     0.004307
CU        0.767333    0.400667    0.534000     0.006663
CU        0.800667    0.367333    0.534000     0.006663
CU        0.800667    0.400667    0.500667     0.006663
NI        0.834000    0.367333    0.500667     0.004307
NI        0.834000    0.400667    0.534000     0.004307
CU        0.867333    0.367333    0.534000     0.006663
NI        0.867333    0.400667    0.500667     0.004307
CU        0.000667    0.434000    0.534000     0.006663
CU        0.000667    0.467333    0.500667     0.006663
NI        0.034000    0.434000    0.500667     0.004307
NI        0.034000    0.467333    0.534000     0.004307
CU        0.067333    0.434000    0.534000     0.006663
CU        0.067333    0.467333    0.500667     0.006663
NI        0.100667    0.434000    0.500667     0.004307
NI        0.100667    0.467333    0.534000     0.004307
NI        0.134000    0.434000    0.534000     0.004307
CU        0.134000    0.467333    0.500667     0.006663
CU        0.167333    0.434000    0.500667     0.006663
NI        0.167333    0.467333    0.534000     0.004307
CU        0.200667    0.434000    0.534000     0.006663
NI        0.200667    0.467333    0.500667     0.004307
CU        0.234000    0.434000    0.500667     0.006663
CU        0.234000    0.467333    0.534000     0.006663
CU        0.267333    0.434000    0.534000     0.006663
CU        0.267333    0.467333    0.500667     0.006663
NI        0.300667    0.434000    0.500667     0.004307
NI        0.300667    0.467333    0.534000     0.004307
CU        0.334000    0.434000    0.534000     0.006663
CU        0.334000    0.467333    0.500667     0.006663
CU        0.367333    0.434000    0.500667     0.006663
NI        0.367333    0.467333    0.534000     0.004307
CU        0.400667    0.434000    0.534000     0.006663
NI        0.400667    0.467333    0.500667     0.004307
CU        0.434000    0.434000    0.500667     0.006663
NI        0.434000    0.467333    0.534000     0.004307
NI        0.467333    0.434000    0.534000     0.004307
CU        0.467333    0.467333    0.500667     0.006663
CU        0.500667    0.434000    0.500667     0.006663
NI        0.500667    0.467333    0.534000     0.004307
NI        0.534000    0.434000    0.534000     0.004307
CU        0.534000    0.467333    0.500667     0.006663
CU        0.567333    0.434000    0.500667     0.006663
CU        0.567333    0.467333    0.534000     0.006663
NI        0.600667    0.434000    0.534000     0.004307
NI        0.600667    0.467333    0.500667     0.004307
NI        0.634000    0.434000    0.500667     0.004307
CU        0.634000    0.467333    0.534000     0.006663
CU        0.667333    0.434000    0.534000     0.006663
CU        0.667333    0.467333    0.500667     0.006663
CU        0.700667    0.434000    0.500667     0.006663
NI        0.700667    0.467333    0.534000     0.004307
CU        0.734000    0.434000    0.534000     0.006663
CU        0.734000    0.467333    0.500667     0.006663
NI        0.767333    0.434000    0.500667     0.004307
NI        0.767333    0.467333    0.534000     0.004307
NI        0.800667    0.434000    0.534000     0.004307
NI        0.800667    0.467333    0.500667     0.004307
NI        0.834000    0.434000    0.500667     0.004307
CU        0.834000    0.467333    0.534000     0.006663
CU        0.867333    0.434000    0.534000     0.006663
NI        0.867333    0.467333    0.500667     0.004307
NI        0.000667    0.500667    0.534000     0.004307
CU        0.000667    0.534000    0.500667     0.006663
NI        0.034000    0.500667    0.500667     0.004307
NI        0.034000    0.534000    0.534000     0.004307
NI        0.067333    0.500667    0.534000     0.004307
NI        0.067333    0.534000    0.500667     0.004307
NI        0.100667    0.500667    0.500667     0.004307
CU        0.100667    0.534000    0.534000     0.006663
NI        0.134000    0.500667    0.534000     0.004307
NI        0.134000    0.534000    0.500667     0.004307
NI        0.167333    0.500667    0.500667     0.004307
NI        0.167333    0.534000    0.534000     0.004307
CU        0.200667    0.500667    0.534000     0.006663
CU        0.200667    0.534000    0.500667     0.006663
NI        0.234000    0.500667    0.500667     0.004307
NI        0.234000    0.534000    0.534000     0.004307
CU        0.267333    0.500667    0.534000     0.006663
NI        0.267333    0.534000    0.500667     0.004307
NI        0.300667    0.500667    0.500667     0.004307
CU        0.300667    0.534000    0.534000     0.006663
CU        0.334000    0.500667    0.534000     0.006663
NI        0.334000    0.534000    0.500667     0.004307
NI        0.367333    0.500667    0.500667     0.004307
NI        0.367333    0.534000    0.534000     0.004307
CU        0.400667    0.500667    0.534000     0.006663
NI        0.400667    0.534000    0.500667     0.004307
CU        0.434000    0.500667    0.500667     0.006663
NI        0.434000    0.534000    0.534000     0.004307
CU        0.467333    0.500667    0.534000     0.006663
CU        0.467333    0.534000    0.500667     0.006663
CU        0.500667    0.500667    0.500667     0.006663
NI        0.500667    0.534000    0.534000     0.004307
NI        0.534000    0.500667    0.534000     0.004307
NI        0.534000    0.534000    0.500667     0.004307
CU        0.567333    0.500667    0.500667     0.006663
CU        0.567333    0.534000    0.534000     0.006663
NI        0.600667    0.500667    0.534000     0.004307
NI        0.600667    0.534000    0.500667     0.004307
CU        0.634000    0.500667    0.500667     0.006663
CU        0.634000    0.534000    0.534000     0.006663
CU        0.667333    0.500667    0.534000     0.006663
NI        0.667333    0.534000    0.500667     0.004307
CU        0.700667    0.500667    0.500667     0.006663
CU        0.700667    0.534000    0.534000     0.006663
CU        0.734000    0.500667    0.534000     0.006663
CU        0.734000    0.534000    0.500667     0.006663
CU        0.767333    0.500667    0.500667     0.006663
NI        0.767333    0.534000    0.534000     0.004307
NI        0.800667    0.500667    0.534000     0.004307
NI        0.800667    0.534000    0.500667     0.004307
CU        0.834000    0.500667    0.500667     0.006663
NI        0.834000    0.534000    0.534000     0.004307
NI        0.867333    0.500667    0.534000     0.004307
CU        0.867333    0.534000    0.500667     0.006663
CU        0.034000    0.567333    0.500667     0.006663
NI        0.034000    0.600667    0.534000     0.004307
CU        0.067333    0.567333    0.534000     0.006663
NI        0.067333    0.600667    0.500667     0.004307
NI        0.100667    0.567333    0.500667     0.004307
NI        0.100667    0.600667    0.534000     0.004307
CU        0.134000    0.567333    0.534000     0.006663
NI        0.134000    0.600667    0.500667     0.004307
NI        0.167333    0.567333    0.500667     0.004307
CU        0.167333    0.600667    0.534000     0.006663
NI        0.200667    0.567333    0.534000     0.004307
NI        0.200667    0.600667    0.500667     0.004307
NI        0.234000    0.567333    0.500667     0.004307
CU        0.234000    0.600667    0.534000     0.006663
NI        0.267333    0.567333    0.534000     0.004307
CU        0.267333    0.600667    0.500667     0.006663
NI        0.300667    0.567333    0.500667     0.004307
CU        0.300667    0.600667    0.534000     0.006663
CU        0.334000    0.567333    0.534000     0.006663
NI        0.334000    0.600667    0.500667     0.004307
CU        0.367333    0.567333    0.500667     0.006663
NI        0.367333    0.600667    0.534000     0.004307
CU        0.400667    0.567333    0.534000     0.006663
CU        0.400667    0.600667    0.500667     0.006663
CU        0.434000    0.567333    0.500667     0.006663
NI        0.434000    0.600667    0.534000     0.004307
CU        0.467333    0.567333    0.534000     0.006663
NI        0.467333    0.600667    0.500667     0.004307
NI        0.500667    0.567333    0.500667     0.004307
NI        0.500667    0.600667    0.534000     0.004307
NI        0.534000    0.567333    0.534000     0.004307
CU        0.534000    0.600667    0.500667     0.006663
NI        0.567333    0.567333    0.500667     0.004307
CU        0.567333    0.600667    0.534000     0.006663
CU        0.600667    0.567333    0.534000     0.006663
CU        0.600667    0.600667    0.500667     0.006663
NI        0.634000    0.567333    0.500667     0.004307
NI        0.634000    0.600667    0.534000     0.004307
NI        0.667333    0.567333    0.534000     0.004307
NI        0.667333    0.600667    0.500667     0.004307
NI        0.700667    0.567333    0.500667     0.004307
NI        0.700667    0.600667    0.534000     0.004307
CU        0.734000    0.567333    0.534000     0.006663
CU        0.734000    0.600667    0.500667     0.006663
CU        0.767333    0.567333    0.500667     0.006663
CU        0.767333    0.600667    0.534000     0.006663
CU        0.800667    0.567333    0.534000     0.006663
CU        0.800667    0.600667    0.500667     0.006663
NI        0.834000    0.567333    0.500667     0.004307
CU        0.834000    0.600667    0.534000     0.006663
CU        0.034000    0.634000    0.500667     0.006663
CU        0.067333    0.634000    0.534000     0.006663
CU        0.067333    0.667333    0.500667     0.006663
NI        0.100667    0.634000    0.500667     0.004307
CU        0.100667    0.667333    0.534000     0.006663
CU        0.134000    0.634000    0.534000     0.006663
NI        0.134000    0.667333    0.500667     0.004307
NI        0.167333    0.634000    0.500667     0.004307
CU        0.167333    0.667333    0.534000     0.006663
NI        0.200667    0.634000    0.534000     0.004307
CU        0.200667    0.667333    0.500667     0.006663
CU        0.234000    0.634000    0.500667     0.006663
NI        0.234000    0.667333    0.534000     0.004307
CU        0.267333    0.634000    0.534000     0.006663
NI        0.267333    0.667333    0.500667     0.004307
NI        0.300667    0.634000    0.500667     0.004307
CU        0.300667    0.667333    0.534000     0.006663
CU        0.334000    0.634000    0.534000     0.006663
CU        0.334000    0.667333    0.500667     0.006663
CU        0.367333    0.634000    0.500667     0.006663
NI        0.367333    0.667333    0.534000     0.004307
CU        0.400667    0.634000    0.534000     0.006663
NI        0.400667    0.667333    0.500667     0.004307
NI        0.434000    0.634000    0.500667     0.004307
NI        0.434000    0.667333    0.534000     0.004307
CU        0.467333    0.634000    0.534000     0.006663
CU        0.467333    0.667333    0.500667     0.006663
CU        0.500667    0.634000    0.500667     0.006663
CU        0.500667    0.667333    0.534000     0.006663
CU        0.534000    0.634000    0.534000     0.006663
CU        0.534000    0.667333    0.500667     0.006663
NI        0.567333    0.634000    0.500667     0.004307
NI        0.567333    0.667333    0.534000     0.004307
CU        0.600667    0.634000    0.534000     0.006663
CU        0.600667    0.667333    0.500667     0.006663
NI        0.634000    0.634000    0.500667     0.004307
CU        0.634000    0.667333    0.534000     0.006663
CU        0.667333    0.634000    0.534000     0.006663
NI        0.667333    0.667333    0.500667     0.004307
NI        0.700667    0.634000    0.500667     0.004307
NI        0.700667    0.667333    0.534000     0.004307
NI        0.734000    0.634000    0.534000     0.004307
CU        0.734000    0.667333    0.500667     0.006663
NI        0.767333    0.634000    0.500667     0.004307
NI        0.767333    0.667333    0.534000     0.004307
NI        0.800667    0.634000    0.534000     0.004307
NI        0.800667    0.667333    0.500667     0.004307
NI        0.834000    0.634000    0.500667     0.004307
CU        0.100667    0.700667    0.500667     0.006663
NI        0.100667    0.734000    0.534000     0.004307
CU        0.134000    0.700667    0.534000     0.006663
CU        0.134000    0.734000    0.500667     0.006663
NI        0.167333    0.700667    0.500667     0.004307
NI        0.167333    0.734000    0.534000     0.004307
CU        0.200667    0.700667    0.534000     0.006663
NI        0.200667    0.734000    0.500667     0.004307
NI        0.234000    0.700667    0.500667     0.004307
NI        0.234000    0.734000    0.534000     0.004307
CU        0.267333    0.700667    0.534000     0.006663
NI        0.267333    0.734000    0.500667     0.004307
CU        0.300667    0.700667    0.500667     0.006663
NI        0.300667    0.734000    0.534000     0.004307
CU        0.334000    0.700667    0.534000     0.006663
CU        0.334000    0.734000    0.500667     0.006663
CU        0.367333    0.700667    0.500667     0.006663
CU        0.367333    0.734000    0.534000     0.006663
CU        0.400667    0.700667    0.534000     0.006663
CU        0.400667    0.734000    0.500667     0.006663
NI        0.434000    0.700667    0.500667     0.004307
NI        0.434000    0.734000    0.534000     0.004307
CU        0.467333    0.700667    0.534000     0.006663
CU        0.467333    0.734000    0.500667     0.006663
NI        0.500667    0.700667    0.500667     0.004307
CU        0.500667    0.734000    0.534000     0.006663
NI        0.534000    0.700667    0.534000     0.004307
NI        0.534000    0.734000    0.500667     0.004307
NI        0.567333    0.700667    0.500667     0.004307
NI        0.567333    0.734000    0.534000     0.004307
NI        0.600667    0.700667    0.534000     0.004307
CU        0.600667    0.734000    0.500667     0.006663
CU        0.634000    0.700667    0.500667     0.006663
CU        0.634000    0.734000    0.534000     0.006663
NI        0.667333    0.700667    0.534000     0.004307
CU        0.667333    0.734000    0.500667     0.006663
NI        0.700667    0.700667    0.500667     0.004307
NI        0.700667    0.734000    0.534000     0.004307
CU        0.734000    0.700667    0.534000     0.006663
CU        0.734000    0.734000    0.500667     0.006663
NI        0.767333    0.700667    0.500667     0.004307
NI        0.767333    0.734000    0.534000     0.004307
NI        0.134000    0.767333    0.534000     0.004307
CU        0.167333    0.767333    0.500667     0.006663
CU        0.200667    0.767333    0.534000     0.006663
NI        0.200667    0.800667    0.500667     0.004307
NI        0.234000    0.767333    0.500667     0.004307
CU        0.234000    0.800667    0.534000     0.006663
CU        0.267333    0.767333    0.534000     0.006663
CU        0.267333    0.800667    0.500667     0.006663
NI        0.300667    0.767333    0.500667     0.004307
CU        0.300667    0.800667    0.534000     0.006663
CU        0.334000    0.767333    0.534000     0.006663
CU        0.334000    0.800667    0.500667     0.006663
NI        0.367333    0.767333    0.500667     0.004307
NI        0.367333    0.800667    0.534000     0.004307
NI        0.400667    0.767333    0.534000     0.004307
CU        0.400667    0.800667    0.500667     0.006663
CU        0.434000    0.767333    0.500667     0.006663
CU        0.434000    0.800667    0.534000     0.006663
CU        0.467333    0.767333    0.534000     0.006663
CU        0.467333    0.800667    0.500667     0.006663
CU        0.500667    0.767333    0.500667     0.006663
CU        0.500667    0.800667    0.534000     0.006663
CU        0.534000    0.767333    0.534000     0.006663
CU        0.534000    0.800667    0.500667     0.006663
CU        0.567333    0.767333    0.500667     0.006663
CU        0.567333    0.800667    0.534000     0.006663
CU        0.600667    0.767333    0.534000     0.006663
NI        0.600667    0.800667    0.500667     0.004307
CU        0.634000    0.767333    0.500667     0.006663
NI        0.634000    0.800667    0.534000     0.004307
NI        0.667333    0.767333    0.534000     0.004307
NI        0.667333    0.800667    0.500667     0.004307
NI        0.700667    0.767333    0.500667     0.004307
CU        0.734000    0.767333    0.534000     0.006663
CU        0.234000    0.834000    0.500667     0.006663
CU        0.267333    0.834000    0.534000     0.006663
NI        0.300667    0.834000    0.500667     0.004307
NI        0.334000    0.834000    0.534000     0.004307
CU        0.334000    0.867333    0.500667     0.006663
CU        0.367333    0.834000    0.500667     0.006663
NI        0.367333    0.867333    0.534000     0.004307
CU        0.400667    0.834000    0.534000     0.006663
CU        0.400667    0.867333    0.500667     0.006663
NI        0.434000    0.834000    0.500667     0.004307
NI        0.434000    0.867333    0.534000     0.004307
NI        0.467333    0.834000    0.534000     0.004307
CU        0.467333    0.867333    0.500667     0.006663
CU        0.500667    0.834000    0.500667     0.006663
NI        0.500667    0.867333    0.534000     0.004307
CU        0.534000    0.834000    0.534000     0.006663
NI        0.534000    0.867333    0.500667     0.004307
CU        0.567333    0.834000    0.500667     0.006663
CU        0.600667    0.834000    0.534000     0.006663
CU        0.634000    0.834000    0.500667     0.006663
CU        0.400667    0.000667    0.567333     0.006663
NI        0.467333    0.000667    0.567333     0.004307
NI        0.200667    0.067333    0.567333     0.004307
CU        0.234000    0.067333    0.600667     0.006663
CU        0.267333    0.067333    0.567333     0.006663
CU        0.300667    0.034000    0.567333     0.006663
NI        0.300667    0.067333    0.600667     0.004307
NI        0.334000    0.034000    0.600667     0.004307
NI        0.334000    0.067333    0.567333     0.004307
NI        0.367333    0.034000    0.567333     0.004307
CU        0.367333    0.067333    0.600667     0.006663
CU        0.400667    0.034000    0.600667     0.006663
NI        0.400667    0.067333    0.567333     0.004307
NI        0.434000    0.034000    0.567333     0.004307
NI        0.434000    0.067333    0.600667     0.004307
NI        0.467333    0.034000    0.600667     0.004307
NI        0.467333    0.067333    0.567333     0.004307
NI        0.500667    0.034000    0.567333     0.004307
CU        0.500667    0.067333    0.600667     0.006663
CU        0.534000    0.034000    0.600667     0.006663
CU        0.534000    0.067333    0.567333     0.006663
NI        0.567333    0.034000    0.567333     0.004307
CU        0.567333    0.067333    0.600667     0.006663
CU        0.600667    0.067333    0.567333     0.006663
CU        0.634000    0.067333    0.600667     0.006663
NI        0.667333    0.067333    0.567333     0.004307
CU        0.134000    0.134000    0.567333     0.006663
NI        0.167333    0.100667    0.567333     0.004307
CU        0.167333    0.134000    0.600667     0.006663
NI        0.200667    0.100667    0.600667     0.004307
NI        0.200667    0.134000    0.567333     0.004307
NI        0.234000    0.100667    0.567333     0.004307
CU        0.234000    0.134000    0.600667     0.006663
CU        0.267333    0.100667    0.600667     0.006663
CU        0.267333    0.134000    0.567333     0.006663
CU        0.300667    0.100667    0.567333     0.006663
NI        0.300667    0.134000    0.600667     0.004307
NI        0.334000    0.100667    0.600667     0.004307
NI        0.334000    0.134000    0.567333     0.004307
CU        0.367333    0.100667    0.567333     0.006663
NI        0.367333    0.134000    0.600667     0.004307
NI        0.400667    0.100667    0.600667     0.004307
CU        0.400667    0.134000    0.567333     0.006663
NI        0.434000    0.100667    0.567333     0.004307
CU        0.434000    0.134000    0.600667     0.006663
CU        0.467333    0.100667    0.600667     0.006663
CU        0.467333    0.134000    0.567333     0.006663
CU        0.500667    0.100667    0.567333     0.006663
NI        0.500667    0.134000    0.600667     0.004307
CU        0.534000    0.100667    0.600667     0.006663
NI        0.534000    0.134000    0.567333     0.004307
CU        0.567333    0.100667    0.567333     0.006663
NI        0.567333    0.134000    0.600667     0.004307
CU        0.600667    0.100667    0.600667     0.006663
CU        0.600667    0.134000    0.567333     0.006663
CU        0.634000    0.100667    0.567333     0.006663
NI        0.634000    0.134000    0.600667     0.004307
NI        0.667333    0.100667    0.600667     0.004307
CU        0.667333    0.134000    0.567333     0.006663
NI        0.700667    0.100667    0.567333     0.004307
CU        0.700667    0.134000    0.600667     0.006663
CU        0.734000    0.134000    0.567333     0.006663
NI        0.067333    0.200667    0.567333     0.004307
CU        0.100667    0.167333    0.567333     0.006663
CU        0.100667    0.200667    0.600667     0.006663
CU        0.134000    0.167333    0.600667     0.006663
CU        0.134000    0.200667    0.567333     0.006663
NI        0.167333    0.167333    0.567333     0.004307
NI        0.167333    0.200667    0.600667     0.004307
CU        0.200667    0.167333    0.600667     0.006663
NI        0.200667    0.200667    0.567333     0.004307
NI        0.234000    0.167333    0.567333     0.004307
CU        0.234000    0.200667    0.600667     0.006663
NI        0.267333    0.167333    0.600667     0.004307
NI        0.267333    0.200667    0.567333     0.004307
NI        0.300667    0.167333    0.567333     0.004307
CU        0.300667    0.200667    0.600667     0.006663
NI        0.334000    0.167333    0.600667     0.004307
CU        0.334000    0.200667    0.567333     0.006663
NI        0.367333    0.167333    0.567333     0.004307
CU        0.367333    0.200667    0.600667     0.006663
NI        0.400667    0.167333    0.600667     0.004307
NI        0.400667    0.200667    0.567333     0.004307
CU        0.434000    0.167333    0.567333     0.006663
CU        0.434000    0.200667    0.600667     0.006663
NI        0.467333    0.167333    0.600667     0.004307
CU        0.467333    0.200667    0.567333     0.006663
CU        0.500667    0.167333    0.567333     0.006663
CU        0.500667    0.200667    0.600667     0.006663
NI        0.534000    0.167333    0.600667     0.004307
NI        0.534000    0.200667    0.567333     0.004307
CU        0.567333    0.167333    0.567333     0.006663
NI        0.567333    0.200667    0.600667     0.004307
NI        0.600667    0.167333    0.600667     0.004307
NI        0.600667    0.200667    0.567333     0.004307
NI        0.634000    0.167333    0.567333     0.004307
NI        0.634000    0.200667    0.600667     0.004307
CU        0.667333    0.167333    0.600667     0.006663
CU        0.667333    0.200667    0.567333     0.006663
NI        0.700667    0.167333    0.567333     0.004307
NI        0.700667    0.200667    0.600667     0.004307
NI        0.734000    0.167333    0.600667     0.004307
CU        0.734000    0.200667    0.567333     0.006663
NI        0.767333    0.167333    0.567333     0.004307
CU        0.767333    0.200667    0.600667     0.006663
CU        0.800667    0.200667    0.567333     0.006663
CU        0.067333    0.234000    0.600667     0.006663
CU        0.067333    0.267333    0.567333     0.006663
CU        0.100667    0.234000    0.567333     0.006663
NI        0.100667    0.267333    0.600667     0.004307
NI        0.134000    0.234000    0.600667     0.004307
CU        0.134000    0.267333    0.567333     0.006663
CU        0.167333    0.234000    0.567333     0.006663
NI        0.167333    0.267333    0.600667     0.004307
CU        0.200667    0.234000    0.600667     0.006663
CU        0.200667    0.267333    0.567333     0.006663
NI        0.234000    0.234000    0.567333     0.004307
NI        0.234000    0.267333    0.600667     0.004307
NI        0.267333    0.234000    0.600667     0.004307
NI        0.267333    0.267333    0.567333     0.004307
NI        0.300667    0.234000    0.567333     0.004307
NI        0.300667    0.267333    0.600667     0.004307
CU        0.334000    0.234000    0.600667     0.006663
CU        0.334000    0.267333    0.567333     0.006663
CU        0.367333    0.234000    0.567333     0.006663
NI        0.367333    0.267333    0.600667     0.004307
CU        0.400667    0.234000    0.600667     0.006663
NI        0.400667    0.267333    0.567333     0.004307
NI        0.434000    0.234000    0.567333     0.004307
NI        0.434000    0.267333    0.600667     0.004307
NI        0.467333    0.234000    0.600667     0.004307
NI        0.467333    0.267333    0.567333     0.004307
CU        0.500667    0.234000    0.567333     0.006663
NI        0.500667    0.267333    0.600667     0.004307
CU        0.534000    0.234000    0.600667     0.006663
CU        0.534000    0.267333    0.567333     0.006663
NI        0.567333    0.234000    0.567333     0.004307
CU        0.567333    0.267333    0.600667     0.006663
NI        0.600667    0.234000    0.600667     0.004307
CU        0.600667    0.267333    0.567333     0.006663
CU        0.634000    0.234000    0.567333     0.006663
CU        0.634000    0.267333    0.600667     0.006663
CU        0.667333    0.234000    0.600667     0.006663
CU        0.667333    0.267333    0.567333     0.006663
NI        0.700667    0.234000    0.567333     0.004307
CU        0.700667    0.267333    0.600667     0.006663
CU        0.734000    0.234000    0.600667     0.006663
CU        0.734000    0.267333    0.567333     0.006663
NI        0.767333    0.234000    0.567333     0.004307
NI        0.767333    0.267333    0.600667     0.004307
NI        0.800667    0.234000    0.600667     0.004307
NI        0.800667    0.267333    0.567333     0.004307
NI        0.034000    0.300667    0.567333     0.004307
CU        0.034000    0.334000    0.600667     0.006663
CU        0.067333    0.300667    0.600667     0.006663
NI        0.067333    0.334000    0.567333     0.004307
NI        0.100667    0.300667    0.567333     0.004307
NI        0.100667    0.334000    0.600667     0.004307
NI        0.134000    0.300667    0.600667     0.004307
NI        0.134000    0.334000    0.567333     0.004307
CU        0.167333    0.300667    0.567333     0.006663
NI        0.167333    0.334000    0.600667     0.004307
NI        0.200667    0.300667    0.600667     0.004307
NI        0.200667    0.334000    0.567333     0.004307
CU        0.234000    0.300667    0.567333     0.006663
CU        0.234000    0.334000    0.600667     0.006663
NI        0.267333    0.300667    0.600667     0.004307
NI        0.267333    0.334000    0.567333     0.004307
CU        0.300667    0.300667    0.567333     0.006663
CU        0.300667    0.334000    0.600667     0.006663
NI        0.334000    0.300667    0.600667     0.004307
NI        0.334000    0.334000    0.567333     0.004307
NI        0.367333    0.300667    0.567333     0.004307
NI        0.367333    0.334000    0.600667     0.004307
CU        0.400667    0.300667    0.600667     0.006663
NI        0.400667    0.334000    0.567333     0.004307
NI        0.434000    0.300667    0.567333     0.004307
CU        0.434000    0.334000    0.600667     0.006663
CU        0.467333    0.300667    0.600667     0.006663
CU        0.467333    0.334000    0.567333     0.006663
CU        0.500667    0.300667    0.567333     0.006663
NI        0.500667    0.334000    0.600667     0.004307
CU        0.534000    0.300667    0.600667     0.006663
NI        0.534000    0.334000    0.567333     0.004307
CU        0.567333    0.300667    0.567333     0.006663
NI        0.567333    0.334000    0.600667     0.004307
CU        0.600667    0.300667    0.600667     0.006663
CU        0.600667    0.334000    0.567333     0.006663
CU        0.634000    0.300667    0.567333     0.006663
CU        0.634000    0.334000    0.600667     0.006663
CU        0.667333    0.300667    0.600667     0.006663
NI        0.667333    0.334000    0.567333     0.004307
CU        0.700667    0.300667    0.567333     0.006663
CU        0.700667    0.334000    0.600667     0.006663
NI        0.734000    0.300667    0.600667     0.004307
CU        0.734000    0.334000    0.567333     0.006663
CU        0.767333    0.300667    0.567333     0.006663
CU        0.767333    0.334000    0.600667     0.006663
NI        0.800667    0.300667    0.600667     0.004307
CU        0.800667    0.334000    0.567333     0.006663
CU        0.834000    0.300667    0.567333     0.006663
CU        0.834000    0.334000    0.600667     0.006663
NI        0.000667    0.400667    0.567333     0.004307
CU        0.034000    0.367333    0.567333     0.006663
CU        0.034000    0.400667    0.600667     0.006663
CU        0.067333    0.367333    0.600667     0.006663
NI        0.067333    0.400667    0.567333     0.004307
CU        0.100667    0.367333    0.567333     0.006663
NI        0.100667    0.400667    0.600667     0.004307
CU        0.134000    0.367333    0.600667     0.006663
CU        0.134000    0.400667    0.567333     0.006663
CU        0.167333    0.367333    0.567333     0.006663
NI        0.167333    0.400667    0.600667     0.004307
CU        0.200667    0.367333    0.600667     0.006663
NI        0.200667    0.400667    0.567333     0.004307
NI        0.234000    0.367333    0.567333     0.004307
NI        0.234000    0.400667    0.600667     0.004307
CU        0.267333    0.367333    0.600667     0.006663
NI        0.267333    0.400667    0.567333     0.004307
CU        0.300667    0.367333    0.567333     0.006663
NI        0.300667    0.400667    0.600667     0.004307
CU        0.334000    0.367333    0.600667     0.006663
CU        0.334000    0.400667    0.567333     0.006663
NI        0.367333    0.367333    0.567333     0.004307
NI        0.367333    0.400667    0.600667     0.004307
CU        0.400667    0.367333    0.600667     0.006663
CU        0.400667    0.400667    0.567333     0.006663
NI        0.434000    0.367333    0.567333     0.004307
NI        0.434000    0.400667    0.600667     0.004307
NI        0.467333    0.367333    0.600667     0.004307
NI        0.467333    0.400667    0.567333     0.004307
NI        0.500667    0.367333    0.567333     0.004307
CU        0.500667    0.400667    0.600667     0.006663
CU        0.534000    0.367333    0.600667     0.006663
CU        0.534000    0.400667    0.567333     0.006663
NI        0.567333    0.367333    0.567333     0.004307
NI        0.567333    0.400667    0.600667     0.004307
NI        0.600667    0.367333    0.600667     0.004307
NI        0.600667    0.400667    0.567333     0.004307
CU        0.634000    0.367333    0.567333     0.006663
NI        0.634000    0.400667    0.600667     0.004307
NI        0.667333    0.367333    0.600667     0.004307
NI        0.667333    0.400667    0.567333     0.004307
NI        0.700667    0.367333    0.567333     0.004307
NI        0.700667    0.400667    0.600667     0.004307
NI        0.734000    0.367333    0.600667     0.004307
CU        0.734000    0.400667    0.567333     0.006663
CU        0.767333    0.367333    0.567333     0.006663
NI        0.767333    0.400667    0.600667     0.004307
NI        0.800667    0.367333    0.600667     0.004307
NI        0.800667    0.400667    0.567333     0.004307
CU        0.834000    0.367333    0.567333     0.006663
CU        0.834000    0.400667    0.600667     0.006663
CU        0.867333    0.400667    0.567333     0.006663
NI        0.000667    0.467333    0.567333     0.004307
NI        0.034000    0.434000    0.567333     0.004307
NI        0.034000    0.467333    0.600667     0.004307
CU        0.067333    0.434000    0.600667     0.006663
CU        0.067333    0.467333    0.567333     0.006663
CU        0.100667    0.434000    0.567333     0.006663
NI        0.100667    0.467333    0.600667     0.004307
CU        0.134000    0.434000    0.600667     0.006663
CU        0.134000    0.467333    0.567333     0.006663
NI        0.167333    0.434000    0.567333     0.004307
NI        0.167333    0.467333    0.600667     0.004307
NI        0.200667    0.434000    0.600667     0.004307
CU        0.200667    0.467333    0.567333     0.006663
NI        0.234000    0.434000    0.567333     0.004307
CU        0.234000    0.467333    0.600667     0.006663
NI        0.267333    0.434000    0.600667     0.004307
NI        0.267333    0.467333    0.567333     0.004307
NI        0.300667    0.434000    0.567333     0.004307
CU        0.300667    0.467333    0.600667     0.006663
NI        0.334000    0.434000    0.600667     0.004307
NI        0.334000    0.467333    0.567333     0.004307
CU        0.367333    0.434000    0.567333     0.006663
NI        0.367333    0.467333    0.600667     0.004307
CU        0.400667    0.434000    0.600667     0.006663
CU        0.400667    0.467333    0.567333     0.006663
NI        0.434000    0.434000    0.567333     0.004307
NI        0.434000    0.467333    0.600667     0.004307
CU        0.467333    0.434000    0.600667     0.006663
CU        0.467333    0.467333    0.567333     0.006663
CU        0.500667    0.434000    0.567333     0.006663
CU        0.500667    0.467333    0.600667     0.006663
CU        0.534000    0.434000    0.600667     0.006663
CU        0.534000    0.467333    0.567333     0.006663
CU        0.567333    0.434000    0.567333     0.006663
CU        0.567333    0.467333    0.600667     0.006663
CU        0.600667    0.434000    0.600667     0.006663
NI        0.600667    0.467333    0.567333     0.004307
NI        0.634000    0.434000    0.567333     0.004307
NI        0.634000    0.467333    0.600667     0.004307
NI        0.667333    0.434000    0.600667     0.004307
NI        0.667333    0.467333    0.567333     0.004307
NI        0.700667    0.434000    0.567333     0.004307
NI        0.700667    0.467333    0.600667     0.004307
CU        0.734000    0.434000    0.600667     0.006663
CU        0.734000    0.467333    0.567333     0.006663
CU        0.767333    0.434000    0.567333     0.006663
CU        0.767333    0.467333    0.600667     0.006663
CU        0.800667    0.434000    0.600667     0.006663
CU        0.800667    0.467333    0.567333     0.006663
CU        0.834000    0.434000    0.567333     0.006663
CU        0.834000    0.467333    0.600667     0.006663
NI        0.867333    0.467333    0.567333     0.004307
NI        0.034000    0.500667    0.567333     0.004307
CU        0.034000    0.534000    0.600667     0.006663
CU        0.067333    0.500667    0.600667     0.006663
CU        0.067333    0.534000    0.567333     0.006663
NI        0.100667    0.500667    0.567333     0.004307
CU        0.100667    0.534000    0.600667     0.006663
NI        0.134000    0.500667    0.600667     0.004307
NI        0.134000    0.534000    0.567333     0.004307
NI        0.167333    0.500667    0.567333     0.004307
CU        0.167333    0.534000    0.600667     0.006663
CU        0.200667    0.500667    0.600667     0.006663
CU        0.200667    0.534000    0.567333     0.006663
NI        0.234000    0.500667    0.567333     0.004307
CU        0.234000    0.534000    0.600667     0.006663
CU        0.267333    0.500667    0.600667     0.006663
CU        0.267333    0.534000    0.567333     0.006663
CU        0.300667    0.500667    0.567333     0.006663
NI        0.300667    0.534000    0.600667     0.004307
CU        0.334000    0.500667    0.600667     0.006663
CU        0.334000    0.534000    0.567333     0.006663
NI        0.367333    0.500667    0.567333     0.004307
CU        0.367333    0.534000    0.600667     0.006663
NI        0.400667    0.500667    0.600667     0.004307
CU        0.400667    0.534000    0.567333     0.006663
CU        0.434000    0.500667    0.567333     0.006663
CU        0.434000    0.534000    0.600667     0.006663
NI        0.467333    0.500667    0.600667     0.004307
CU        0.467333    0.534000    0.567333     0.006663
CU        0.500667    0.500667    0.567333     0.006663
CU        0.500667    0.534000    0.600667     0.006663
CU        0.534000    0.500667    0.600667     0.006663
NI        0.534000    0.534000    0.567333     0.004307
CU        0.567333    0.500667    0.567333     0.006663
CU        0.567333    0.534000    0.600667     0.006663
CU        0.600667    0.500667    0.600667     0.006663
CU        0.600667    0.534000    0.567333     0.006663
NI        0.634000    0.500667    0.567333     0.004307
CU        0.634000    0.534000    0.600667     0.006663
NI        0.667333    0.500667    0.600667     0.004307
NI        0.667333    0.534000    0.567333     0.004307
NI        0.700667    0.500667    0.567333     0.004307
NI        0.700667    0.534000    0.600667     0.004307
CU        0.734000    0.500667    0.600667     0.006663
CU        0.734000    0.534000    0.567333     0.006663
CU        0.767333    0.500667    0.567333     0.006663
CU        0.767333    0.534000    0.600667     0.006663
NI        0.800667    0.500667    0.600667     0.004307
CU        0.800667    0.534000    0.567333     0.006663
CU        0.834000    0.500667    0.567333     0.006663
CU        0.834000    0.534000    0.600667     0.006663
CU        0.034000    0.567333    0.567333     0.006663
NI        0.067333    0.567333    0.600667     0.004307
CU        0.067333    0.600667    0.567333     0.006663
NI        0.100667    0.567333    0.567333     0.004307
NI        0.100667    0.600667    0.600667     0.004307
CU        0.134000    0.567333    0.600667     0.006663
NI        0.134000    0.600667    0.567333     0.004307
CU        0.167333    0.567333    0.567333     0.006663
NI        0.167333    0.600667    0.600667     0.004307
CU        0.200667    0.567333    0.600667     0.006663
NI        0.200667    0.600667    0.567333     0.004307
CU        0.234000    0.567333    0.567333     0.006663
CU        0.234000    0.600667    0.600667     0.006663
CU        0.267333    0.567333    0.600667     0.006663
CU        0.267333    0.600667    0.567333     0.006663
NI        0.300667    0.567333    0.567333     0.004307
CU        0.300667    0.600667    0.600667     0.006663
CU        0.334000    0.567333    0.600667     0.006663
CU        0.334000    0.600667    0.567333     0.006663
CU        0.367333    0.567333    0.567333     0.006663
NI        0.367333    0.600667    0.600667     0.004307
CU        0.400667    0.567333    0.600667     0.006663
CU        0.400667    0.600667    0.567333     0.006663
NI        0.434000    0.567333    0.567333     0.004307
NI        0.434000    0.600667    0.600667     0.004307
NI        0.467333    0.567333    0.600667     0.004307
CU        0.467333    0.600667    0.567333     0.006663
CU        0.500667    0.567333    0.567333     0.006663
NI        0.500667    0.600667    0.600667     0.004307
CU        0.534000    0.567333    0.600667     0.006663
CU        0.534000    0.600667    0.567333     0.006663
NI        0.567333    0.567333    0.567333     0.004307
CU        0.567333    0.600667    0.600667     0.006663
NI        0.600667    0.567333    0.600667     0.004307
CU        0.600667    0.600667    0.567333     0.006663
CU        0.634000    0.567333    0.567333     0.006663
CU        0.634000    0.600667    0.600667     0.006663
NI        0.667333    0.567333    0.600667     0.004307
CU        0.667333    0.600667    0.567333     0.006663
CU        0.700667    0.567333    0.567333     0.006663
CU        0.700667    0.600667    0.600667     0.006663
CU        0.734000    0.567333    0.600667     0.006663
NI        0.734000    0.600667    0.567333     0.004307
CU        0.767333    0.567333    0.567333     0.006663
NI        0.767333    0.600667    0.600667     0.004307
CU        0.800667    0.567333    0.600667     0.006663
CU        0.800667    0.600667    0.567333     0.006663
NI        0.834000    0.567333    0.567333     0.004307
CU        0.067333    0.634000    0.600667     0.006663
NI        0.067333    0.667333    0.567333     0.004307
CU        0.100667    0.634000    0.567333     0.006663
CU        0.100667    0.667333    0.600667     0.006663
NI        0.134000    0.634000    0.600667     0.004307
NI        0.134000    0.667333    0.567333     0.004307
CU        0.167333    0.634000    0.567333     0.006663
CU        0.167333    0.667333    0.600667     0.006663
NI        0.200667    0.634000    0.600667     0.004307
NI        0.200667    0.667333    0.567333     0.004307
CU        0.234000    0.634000    0.567333     0.006663
NI        0.234000    0.667333    0.600667     0.004307
NI        0.267333    0.634000    0.600667     0.004307
NI        0.267333    0.667333    0.567333     0.004307
NI        0.300667    0.634000    0.567333     0.004307
CU        0.300667    0.667333    0.600667     0.006663
CU        0.334000    0.634000    0.600667     0.006663
CU        0.334000    0.667333    0.567333     0.006663
NI        0.367333    0.634000    0.567333     0.004307
NI        0.367333    0.667333    0.600667     0.004307
NI        0.400667    0.634000    0.600667     0.004307
NI        0.400667    0.667333    0.567333     0.004307
CU        0.434000    0.634000    0.567333     0.006663
NI        0.434000    0.667333    0.600667     0.004307
NI        0.467333    0.634000    0.600667     0.004307
NI        0.467333    0.667333    0.567333     0.004307
NI        0.500667    0.634000    0.567333     0.004307
NI        0.500667    0.667333    0.600667     0.004307
CU        0.534000    0.634000    0.600667     0.006663
NI        0.534000    0.667333    0.567333     0.004307
NI        0.567333    0.634000    0.567333     0.004307
NI        0.567333    0.667333    0.600667     0.004307
NI        0.600667    0.634000    0.600667     0.004307
CU        0.600667    0.667333    0.567333     0.006663
NI        0.634000    0.634000    0.567333     0.004307
NI        0.634000    0.667333    0.600667     0.004307
CU        0.667333    0.634000    0.600667     0.006663
CU        0.667333    0.667333    0.567333     0.006663
NI        0.700667    0.634000    0.567333     0.004307
CU        0.700667    0.667333    0.600667     0.006663
CU        0.734000    0.634000    0.600667     0.006663
CU        0.734000    0.667333    0.567333     0.006663
NI        0.767333    0.634000    0.567333     0.004307
NI        0.767333    0.667333    0.600667     0.004307
NI        0.800667    0.634000    0.600667     0.004307
CU        0.800667    0.667333    0.567333     0.006663
CU        0.100667    0.700667    0.567333     0.006663
CU        0.134000    0.700667    0.600667     0.006663
CU        0.134000    0.734000    0.567333     0.006663
CU        0.167333    0.700667    0.567333     0.006663
CU        0.167333    0.734000    0.600667     0.006663
NI        0.200667    0.700667    0.600667     0.004307
CU        0.200667    0.734000    0.567333     0.006663
CU        0.234000    0.700667    0.567333     0.006663
CU        0.234000    0.734000    0.600667     0.006663
CU        0.267333    0.700667    0.600667     0.006663
NI        0.267333    0.734000    0.567333     0.004307
CU        0.300667    0.700667    0.567333     0.006663
CU        0.300667    0.734000    0.600667     0.006663
CU        0.334000    0.700667    0.600667     0.006663
CU        0.334000    0.734000    0.567333     0.006663
CU        0.367333    0.700667    0.567333     0.006663
NI        0.367333    0.734000    0.600667     0.004307
CU        0.400667    0.700667    0.600667     0.006663
CU        0.400667    0.734000    0.567333     0.006663
NI        0.434000    0.700667    0.567333     0.004307
NI        0.434000    0.734000    0.600667     0.004307
NI        0.467333    0.700667    0.600667     0.004307
CU        0.467333    0.734000    0.567333     0.006663
CU        0.500667    0.700667    0.567333     0.006663
CU        0.500667    0.734000    0.600667     0.006663
NI        0.534000    0.700667    0.600667     0.004307
NI        0.534000    0.734000    0.567333     0.004307
CU        0.567333    0.700667    0.567333     0.006663
CU        0.567333    0.734000    0.600667     0.006663
NI        0.600667    0.700667    0.600667     0.004307
CU        0.600667    0.734000    0.567333     0.006663
CU        0.634000    0.700667    0.567333     0.006663
NI        0.634000    0.734000    0.600667     0.004307
CU        0.667333    0.700667    0.600667     0.006663
CU        0.667333    0.734000    0.567333     0.006663
CU        0.700667    0.700667    0.567333     0.006663
CU        0.700667    0.734000    0.600667     0.006663
CU        0.734000    0.700667    0.600667     0.006663
NI        0.734000    0.734000    0.567333     0.004307
NI        0.767333    0.700667    0.567333     0.004307
NI        0.167333    0.767333    0.567333     0.004307
CU        0.200667    0.767333    0.600667     0.006663
CU        0.200667    0.800667    0.567333     0.006663
NI        0.234000    0.767333    0.567333     0.004307
CU        0.234000    0.800667    0.600667     0.006663
CU        0.267333    0.767333    0.600667     0.006663
NI        0.267333    0.800667    0.567333     0.004307
CU        0.300667    0.767333    0.567333     0.006663
NI        0.300667    0.800667    0.600667     0.004307
NI        0.334000    0.767333    0.600667     0.004307
CU        0.334000    0.800667    0.567333     0.006663
NI        0.367333    0.767333    0.567333     0.004307
CU        0.367333    0.800667    0.600667     0.006663
NI        0.400667    0.767333    0.600667     0.004307
NI        0.400667    0.800667    0.567333     0.004307
NI        0.434000    0.767333    0.567333     0.004307
NI        0.434000    0.800667    0.600667     0.004307
NI        0.467333    0.767333    0.600667     0.004307
CU        0.467333    0.800667    0.567333     0.006663
CU        0.500667    0.767333    0.567333     0.006663
NI        0.500667    0.800667    0.600667     0.004307
NI        0.534000    0.767333    0.600667     0.004307
CU        0.534000    0.800667    0.567333     0.006663
CU        0.567333    0.767333    0.567333     0.006663
CU        0.567333    0.800667    0.600667     0.006663
NI        0.600667    0.767333    0.600667     0.004307
CU        0.600667    0.800667    0.567333     0.006663
CU        0.634000    0.767333    0.567333     0.006663
CU        0.634000    0.800667    0.600667     0.006663
NI        0.667333    0.767333    0.600667     0.004307
CU        0.667333    0.800667    0.567333     0.006663
CU        0.700667    0.767333    0.567333     0.006663
CU        0.300667    0.834000    0.567333     0.006663
CU        0.334000    0.834000    0.600667     0.006663
NI        0.367333    0.834000    0.567333     0.004307
NI        0.400667    0.834000    0.600667     0.004307
NI        0.400667    0.867333    0.567333     0.004307
CU        0.434000    0.834000    0.567333     0.006663
CU        0.467333    0.834000    0.600667     0.006663
NI        0.467333    0.867333    0.567333     0.004307
NI        0.500667    0.834000    0.567333     0.004307
NI        0.534000    0.834000    0.600667     0.004307
NI        0.567333    0.834000    0.567333     0.004307
CU        0.267333    0.067333    0.634000     0.006663
NI        0.300667    0.067333    0.667333     0.004307
CU        0.334000    0.067333    0.634000     0.006663
NI        0.367333    0.034000    0.634000     0.004307
NI        0.367333    0.067333    0.667333     0.004307
CU        0.400667    0.067333    0.634000     0.006663
CU        0.434000    0.034000    0.634000     0.006663
NI        0.434000    0.067333    0.667333     0.004307
CU        0.467333    0.067333    0.634000     0.006663
NI        0.500667    0.034000    0.634000     0.004307
CU        0.500667    0.067333    0.667333     0.006663
CU        0.534000    0.067333    0.634000     0.006663
NI        0.567333    0.067333    0.667333     0.004307
NI        0.600667    0.067333    0.634000     0.004307
NI        0.200667    0.134000    0.634000     0.004307
CU        0.234000    0.100667    0.634000     0.006663
NI        0.234000    0.134000    0.667333     0.004307
NI        0.267333    0.100667    0.667333     0.004307
CU        0.267333    0.134000    0.634000     0.006663
CU        0.300667    0.100667    0.634000     0.006663
NI        0.300667    0.134000    0.667333     0.004307
CU        0.334000    0.100667    0.667333     0.006663
NI        0.334000    0.134000    0.634000     0.004307
CU        0.367333    0.100667    0.634000     0.006663
CU        0.367333    0.134000    0.667333     0.006663
CU        0.400667    0.100667    0.667333     0.006663
CU        0.400667    0.134000    0.634000     0.006663
CU        0.434000    0.100667    0.634000     0.006663
CU        0.434000    0.134000    0.667333     0.006663
NI        0.467333    0.100667    0.667333     0.004307
NI        0.467333    0.134000    0.634000     0.004307
CU        0.500667    0.100667    0.634000     0.006663
NI        0.500667    0.134000    0.667333     0.004307
CU        0.534000    0.100667    0.667333     0.006663
NI        0.534000    0.134000    0.634000     0.004307
CU        0.567333    0.100667    0.634000     0.006663
NI        0.567333    0.134000    0.667333     0.004307
NI        0.600667    0.100667    0.667333     0.004307
NI        0.600667    0.134000    0.634000     0.004307
CU        0.634000    0.100667    0.634000     0.006663
CU        0.634000    0.134000    0.667333     0.006663
CU        0.667333    0.134000    0.634000     0.006663
NI        0.134000    0.200667    0.634000     0.004307
NI        0.167333    0.167333    0.634000     0.004307
CU        0.167333    0.200667    0.667333     0.006663
CU        0.200667    0.167333    0.667333     0.006663
CU        0.200667    0.200667    0.634000     0.006663
NI        0.234000    0.167333    0.634000     0.004307
NI        0.234000    0.200667    0.667333     0.004307
CU        0.267333    0.167333    0.667333     0.006663
NI        0.267333    0.200667    0.634000     0.004307
NI        0.300667    0.167333    0.634000     0.004307
NI        0.300667    0.200667    0.667333     0.004307
CU        0.334000    0.167333    0.667333     0.006663
NI        0.334000    0.200667    0.634000     0.004307
CU        0.367333    0.167333    0.634000     0.006663
CU        0.367333    0.200667    0.667333     0.006663
NI        0.400667    0.167333    0.667333     0.004307
NI        0.400667    0.200667    0.634000     0.004307
CU        0.434000    0.167333    0.634000     0.006663
CU        0.434000    0.200667    0.667333     0.006663
CU        0.467333    0.167333    0.667333     0.006663
NI        0.467333    0.200667    0.634000     0.004307
NI        0.500667    0.167333    0.634000     0.004307
NI        0.500667    0.200667    0.667333     0.004307
NI        0.534000    0.167333    0.667333     0.004307
NI        0.534000    0.200667    0.634000     0.004307
CU        0.567333    0.167333    0.634000     0.006663
CU        0.567333    0.200667    0.667333     0.006663
NI        0.600667    0.167333    0.667333     0.004307
CU        0.600667    0.200667    0.634000     0.006663
CU        0.634000    0.167333    0.634000     0.006663
CU        0.634000    0.200667    0.667333     0.006663
CU        0.667333    0.167333    0.667333     0.006663
CU        0.667333    0.200667    0.634000     0.006663
NI        0.700667    0.167333    0.634000     0.004307
CU        0.700667    0.200667    0.667333     0.006663
NI        0.734000    0.200667    0.634000     0.004307
CU        0.067333    0.267333    0.634000     0.006663
NI        0.100667    0.234000    0.634000     0.004307
CU        0.100667    0.267333    0.667333     0.006663
CU        0.134000    0.234000    0.667333     0.006663
NI        0.134000    0.267333    0.634000     0.004307
NI        0.167333    0.234000    0.634000     0.004307
CU        0.167333    0.267333    0.667333     0.006663
CU        0.200667    0.234000    0.667333     0.006663
NI        0.200667    0.267333    0.634000     0.004307
CU        0.234000    0.234000    0.634000     0.006663
CU        0.234000    0.267333    0.667333     0.006663
NI        0.267333    0.234000    0.667333     0.004307
CU        0.267333    0.267333    0.634000     0.006663
NI        0.300667    0.234000    0.634000     0.004307
CU        0.300667    0.267333    0.667333     0.006663
CU        0.334000    0.234000    0.667333     0.006663
NI        0.334000    0.267333    0.634000     0.004307
CU        0.367333    0.234000    0.634000     0.006663
NI        0.367333    0.267333    0.667333     0.004307
CU        0.400667    0.234000    0.667333     0.006663
NI        0.400667    0.267333    0.634000     0.004307
CU        0.434000    0.234000    0.634000     0.006663
CU        0.434000    0.267333    0.667333     0.006663
CU        0.467333    0.234000    0.667333     0.006663
CU        0.467333    0.267333    0.634000     0.006663
NI        0.500667    0.234000    0.634000     0.004307
NI        0.500667    0.267333    0.667333     0.004307
CU        0.534000    0.234000    0.667333     0.006663
NI        0.534000    0.267333    0.634000     0.004307
NI        0.567333    0.234000    0.634000     0.004307
NI        0.567333    0.267333    0.667333     0.004307
NI        0.600667    0.234000    0.667333     0.004307
CU        0.600667    0.267333    0.634000     0.006663
CU        0.634000    0.234000    0.634000     0.006663
NI        0.634000    0.267333    0.667333     0.004307
CU        0.667333    0.234000    0.667333     0.006663
CU        0.667333    0.267333    0.634000     0.006663
CU        0.700667    0.234000    0.634000     0.006663
CU        0.700667    0.267333    0.667333     0.006663
NI        0.734000    0.234000    0.667333     0.004307
NI        0.734000    0.267333    0.634000     0.004307
NI        0.767333    0.234000    0.634000     0.004307
NI        0.767333    0.267333    0.667333     0.004307
NI        0.800667    0.267333    0.634000     0.004307
CU        0.067333    0.300667    0.667333     0.006663
CU        0.067333    0.334000    0.634000     0.006663
NI        0.100667    0.300667    0.634000     0.004307
CU        0.100667    0.334000    0.667333     0.006663
NI        0.134000    0.300667    0.667333     0.004307
NI        0.134000    0.334000    0.634000     0.004307
CU        0.167333    0.300667    0.634000     0.006663
NI        0.167333    0.334000    0.667333     0.004307
CU        0.200667    0.300667    0.667333     0.006663
CU        0.200667    0.334000    0.634000     0.006663
NI        0.234000    0.300667    0.634000     0.004307
CU        0.234000    0.334000    0.667333     0.006663
NI        0.267333    0.300667    0.667333     0.004307
CU        0.267333    0.334000    0.634000     0.006663
CU        0.300667    0.300667    0.634000     0.006663
CU        0.300667    0.334000    0.667333     0.006663
CU        0.334000    0.300667    0.667333     0.006663
NI        0.334000    0.334000    0.634000     0.004307
CU        0.367333    0.300667    0.634000     0.006663
CU        0.367333    0.334000    0.667333     0.006663
CU        0.400667    0.300667    0.667333     0.006663
NI        0.400667    0.334000    0.634000     0.004307
CU        0.434000    0.300667    0.634000     0.006663
CU        0.434000    0.334000    0.667333     0.006663
NI        0.467333    0.300667    0.667333     0.004307
NI        0.467333    0.334000    0.634000     0.004307
CU        0.500667    0.300667    0.634000     0.006663
NI        0.500667    0.334000    0.667333     0.004307
CU        0.534000    0.300667    0.667333     0.006663
NI        0.534000    0.334000    0.634000     0.004307
NI        0.567333    0.300667    0.634000     0.004307
CU        0.567333    0.334000    0.667333     0.006663
NI        0.600667    0.300667    0.667333     0.004307
NI        0.600667    0.334000    0.634000     0.004307
CU        0.634000    0.300667    0.634000     0.006663
NI        0.634000    0.334000    0.667333     0.004307
CU        0.667333    0.300667    0.667333     0.006663
CU        0.667333    0.334000    0.634000     0.006663
NI        0.700667    0.300667    0.634000     0.004307
NI        0.700667    0.334000    0.667333     0.004307
NI        0.734000    0.300667    0.667333     0.004307
NI        0.734000    0.334000    0.634000     0.004307
NI        0.767333    0.300667    0.634000     0.004307
CU        0.767333    0.334000    0.667333     0.006663
CU        0.800667    0.300667    0.667333     0.006663
NI        0.800667    0.334000    0.634000     0.004307
CU        0.034000    0.367333    0.634000     0.006663
CU        0.067333    0.367333    0.667333     0.006663
NI        0.067333    0.400667    0.634000     0.004307
CU        0.100667    0.367333    0.634000     0.006663
NI        0.100667    0.400667    0.667333     0.004307
NI        0.134000    0.367333    0.667333     0.004307
NI        0.134000    0.400667    0.634000     0.004307
CU        0.167333    0.367333    0.634000     0.006663
CU        0.167333    0.400667    0.667333     0.006663
CU        0.200667    0.367333    0.667333     0.006663
NI        0.200667    0.400667    0.634000     0.004307
NI        0.234000    0.367333    0.634000     0.004307
NI        0.234000    0.400667    0.667333     0.004307
CU        0.267333    0.367333    0.667333     0.006663
CU        0.267333    0.400667    0.634000     0.006663
CU        0.300667    0.367333    0.634000     0.006663
NI        0.300667    0.400667    0.667333     0.004307
CU        0.334000    0.367333    0.667333     0.006663
NI        0.334000    0.400667    0.634000     0.004307
NI        0.367333    0.367333    0.634000     0.004307
NI        0.367333    0.400667    0.667333     0.004307
CU        0.400667    0.367333    0.667333     0.006663
CU        0.400667    0.400667    0.634000     0.006663
NI        0.434000    0.367333    0.634000     0.004307
CU        0.434000    0.400667    0.667333     0.006663
NI        0.467333    0.367333    0.667333     0.004307
CU        0.467333    0.400667    0.634000     0.006663
CU        0.500667    0.367333    0.634000     0.006663
NI        0.500667    0.400667    0.667333     0.004307
NI        0.534000    0.367333    0.667333     0.004307
CU        0.534000    0.400667    0.634000     0.006663
NI        0.567333    0.367333    0.634000     0.004307
NI        0.567333    0.400667    0.667333     0.004307
CU        0.600667    0.367333    0.667333     0.006663
NI        0.600667    0.400667    0.634000     0.004307
CU        0.634000    0.367333    0.634000     0.006663
CU        0.634000    0.400667    0.667333     0.006663
CU        0.667333    0.367333    0.667333     0.006663
NI        0.667333    0.400667    0.634000     0.004307
CU        0.700667    0.367333    0.634000     0.006663
CU        0.700667    0.400667    0.667333     0.006663
NI        0.734000    0.367333    0.667333     0.004307
NI        0.734000    0.400667    0.634000     0.004307
NI        0.767333    0.367333    0.634000     0.004307
CU        0.767333    0.400667    0.667333     0.006663
NI        0.800667    0.367333    0.667333     0.004307
NI        0.800667    0.400667    0.634000     0.004307
CU        0.834000    0.367333    0.634000     0.006663
CU        0.034000    0.434000    0.634000     0.006663
CU        0.067333    0.434000    0.667333     0.006663
NI        0.067333    0.467333    0.634000     0.004307
CU        0.100667    0.434000    0.634000     0.006663
CU        0.100667    0.467333    0.667333     0.006663
CU        0.134000    0.434000    0.667333     0.006663
CU        0.134000    0.467333    0.634000     0.006663
NI        0.167333    0.434000    0.634000     0.004307
CU        0.167333    0.467333    0.667333     0.006663
NI        0.200667    0.434000    0.667333     0.004307
NI        0.200667    0.467333    0.634000     0.004307
NI        0.234000    0.434000    0.634000     0.004307
NI        0.234000    0.467333    0.667333     0.004307
CU        0.267333    0.434000    0.667333     0.006663
CU        0.267333    0.467333    0.634000     0.006663
CU        0.300667    0.434000    0.634000     0.006663
NI        0.300667    0.467333    0.667333     0.004307
CU        0.334000    0.434000    0.667333     0.006663
NI        0.334000    0.467333    0.634000     0.004307
NI        0.367333    0.434000    0.634000     0.004307
NI        0.367333    0.467333    0.667333     0.004307
NI        0.400667    0.434000    0.667333     0.004307
CU        0.400667    0.467333    0.634000     0.006663
NI        0.434000    0.434000    0.634000     0.004307
NI        0.434000    0.467333    0.667333     0.004307
NI        0.467333    0.434000    0.667333     0.004307
CU        0.467333    0.467333    0.634000     0.006663
CU        0.500667    0.434000    0.634000     0.006663
NI        0.500667    0.467333    0.667333     0.004307
CU        0.534000    0.434000    0.667333     0.006663
NI        0.534000    0.467333    0.634000     0.004307
CU        0.567333    0.434000    0.634000     0.006663
NI        0.567333    0.467333    0.667333     0.004307
NI        0.600667    0.434000    0.667333     0.004307
NI        0.600667    0.467333    0.634000     0.004307
NI        0.634000    0.434000    0.634000     0.004307
CU        0.634000    0.467333    0.667333     0.006663
CU        0.667333    0.434000    0.667333     0.006663
NI        0.667333    0.467333    0.634000     0.004307
NI        0.700667    0.434000    0.634000     0.004307
CU        0.700667    0.467333    0.667333     0.006663
NI        0.734000    0.434000    0.667333     0.004307
NI        0.734000    0.467333    0.634000     0.004307
NI        0.767333    0.434000    0.634000     0.004307
NI        0.767333    0.467333    0.667333     0.004307
CU        0.800667    0.434000    0.667333     0.006663
NI        0.800667    0.467333    0.634000     0.004307
CU        0.834000    0.434000    0.634000     0.006663
CU        0.034000    0.500667    0.634000     0.006663
NI        0.067333    0.500667    0.667333     0.004307
NI        0.067333    0.534000    0.634000     0.004307
CU        0.100667    0.500667    0.634000     0.006663
NI        0.100667    0.534000    0.667333     0.004307
NI        0.134000    0.500667    0.667333     0.004307
NI        0.134000    0.534000    0.634000     0.004307
CU        0.167333    0.500667    0.634000     0.006663
NI        0.167333    0.534000    0.667333     0.004307
CU        0.200667    0.500667    0.667333     0.006663
NI        0.200667    0.534000    0.634000     0.004307
NI        0.234000    0.500667    0.634000     0.004307
NI        0.234000    0.534000    0.667333     0.004307
CU        0.267333    0.500667    0.667333     0.006663
NI        0.267333    0.534000    0.634000     0.004307
CU        0.300667    0.500667    0.634000     0.006663
CU        0.300667    0.534000    0.667333     0.006663
CU        0.334000    0.500667    0.667333     0.006663
CU        0.334000    0.534000    0.634000     0.006663
NI        0.367333    0.500667    0.634000     0.004307
CU        0.367333    0.534000    0.667333     0.006663
NI        0.400667    0.500667    0.667333     0.004307
NI        0.400667    0.534000    0.634000     0.004307
CU        0.434000    0.500667    0.634000     0.006663
CU        0.434000    0.534000    0.667333     0.006663
NI        0.467333    0.500667    0.667333     0.004307
CU        0.467333    0.534000    0.634000     0.006663
CU        0.500667    0.500667    0.634000     0.006663
CU        0.500667    0.534000    0.667333     0.006663
NI        0.534000    0.500667    0.667333     0.004307
NI        0.534000    0.534000    0.634000     0.004307
CU        0.567333    0.500667    0.634000     0.006663
NI        0.567333    0.534000    0.667333     0.004307
NI        0.600667    0.500667    0.667333     0.004307
CU        0.600667    0.534000    0.634000     0.006663
CU        0.634000    0.500667    0.634000     0.006663
CU        0.634000    0.534000    0.667333     0.006663
CU        0.667333    0.500667    0.667333     0.006663
NI        0.667333    0.534000    0.634000     0.004307
CU        0.700667    0.500667    0.634000     0.006663
CU        0.700667    0.534000    0.667333     0.006663
CU        0.734000    0.500667    0.667333     0.006663
CU        0.734000    0.534000    0.634000     0.006663
NI        0.767333    0.500667    0.634000     0.004307
NI        0.767333    0.534000    0.667333     0.004307
NI        0.800667    0.500667    0.667333     0.004307
CU        0.800667    0.534000    0.634000     0.006663
CU        0.834000    0.500667    0.634000     0.006663
NI        0.067333    0.567333    0.667333     0.004307
NI        0.067333    0.600667    0.634000     0.004307
NI        0.100667    0.567333    0.634000     0.004307
CU        0.100667    0.600667    0.667333     0.006663
CU        0.134000    0.567333    0.667333     0.006663
NI        0.134000    0.600667    0.634000     0.004307
CU        0.167333    0.567333    0.634000     0.006663
NI        0.167333    0.600667    0.667333     0.004307
NI        0.200667    0.567333    0.667333     0.004307
CU        0.200667    0.600667    0.634000     0.006663
CU        0.234000    0.567333    0.634000     0.006663
NI        0.234000    0.600667    0.667333     0.004307
NI        0.267333    0.567333    0.667333     0.004307
CU        0.267333    0.600667    0.634000     0.006663
CU        0.300667    0.567333    0.634000     0.006663
NI        0.300667    0.600667    0.667333     0.004307
NI        0.334000    0.567333    0.667333     0.004307
NI        0.334000    0.600667    0.634000     0.004307
NI        0.367333    0.567333    0.634000     0.004307
CU        0.367333    0.600667    0.667333     0.006663
NI        0.400667    0.567333    0.667333     0.004307
CU        0.400667    0.600667    0.634000     0.006663
CU        0.434000    0.567333    0.634000     0.006663
NI        0.434000    0.600667    0.667333     0.004307
CU        0.467333    0.567333    0.667333     0.006663
CU        0.467333    0.600667    0.634000     0.006663
CU        0.500667    0.567333    0.634000     0.006663
CU        0.500667    0.600667    0.667333     0.006663
NI        0.534000    0.567333    0.667333     0.004307
NI        0.534000    0.600667    0.634000     0.004307
CU        0.567333    0.567333    0.634000     0.006663
CU        0.567333    0.600667    0.667333     0.006663
NI        0.600667    0.567333    0.667333     0.004307
NI        0.600667    0.600667    0.634000     0.004307
NI        0.634000    0.567333    0.634000     0.004307
CU        0.634000    0.600667    0.667333     0.006663
NI        0.667333    0.567333    0.667333     0.004307
CU        0.667333    0.600667    0.634000     0.006663
NI        0.700667    0.567333    0.634000     0.004307
CU        0.700667    0.600667    0.667333     0.006663
CU        0.734000    0.567333    0.667333     0.006663
CU        0.734000    0.600667    0.634000     0.006663
CU        0.767333    0.567333    0.634000     0.006663
NI        0.767333    0.600667    0.667333     0.004307
CU        0.800667    0.567333    0.667333     0.006663
NI        0.800667    0.600667    0.634000     0.004307
CU        0.100667    0.634000    0.634000     0.006663
CU        0.134000    0.634000    0.667333     0.006663
CU        0.134000    0.667333    0.634000     0.006663
CU        0.167333    0.634000    0.634000     0.006663
CU        0.167333    0.667333    0.667333     0.006663
NI        0.200667    0.634000    0.667333     0.004307
CU        0.200667    0.667333    0.634000     0.006663
NI        0.234000    0.634000    0.634000     0.004307
CU        0.234000    0.667333    0.667333     0.006663
NI        0.267333    0.634000    0.667333     0.004307
NI        0.267333    0.667333    0.634000     0.004307
NI        0.300667    0.634000    0.634000     0.004307
NI        0.300667    0.667333    0.667333     0.004307
CU        0.334000    0.634000    0.667333     0.006663
NI        0.334000    0.667333    0.634000     0.004307
CU        0.367333    0.634000    0.634000     0.006663
NI        0.367333    0.667333    0.667333     0.004307
NI        0.400667    0.634000    0.667333     0.004307
CU        0.400667    0.667333    0.634000     0.006663
CU        0.434000    0.634000    0.634000     0.006663
CU        0.434000    0.667333    0.667333     0.006663
NI        0.467333    0.634000    0.667333     0.004307
CU        0.467333    0.667333    0.634000     0.006663
CU        0.500667    0.634000    0.634000     0.006663
NI        0.500667    0.667333    0.667333     0.004307
NI        0.534000    0.634000    0.667333     0.004307
CU        0.534000    0.667333    0.634000     0.006663
CU        0.567333    0.634000    0.634000     0.006663
CU        0.567333    0.667333    0.667333     0.006663
NI        0.600667    0.634000    0.667333     0.004307
CU        0.600667    0.667333    0.634000     0.006663
CU        0.634000    0.634000    0.634000     0.006663
CU        0.634000    0.667333    0.667333     0.006663
CU        0.667333    0.634000    0.667333     0.006663
CU        0.667333    0.667333    0.634000     0.006663
CU        0.700667    0.634000    0.634000     0.006663
CU        0.700667    0.667333    0.667333     0.006663
CU        0.734000    0.634000    0.667333     0.006663
NI        0.734000    0.667333    0.634000     0.004307
CU        0.767333    0.634000    0.634000     0.006663
NI        0.167333    0.700667    0.634000     0.004307
CU        0.200667    0.700667    0.667333     0.006663
CU        0.200667    0.734000    0.634000     0.006663
NI        0.234000    0.700667    0.634000     0.004307
CU        0.234000    0.734000    0.667333     0.006663
CU        0.267333    0.700667    0.667333     0.006663
CU        0.267333    0.734000    0.634000     0.006663
CU        0.300667    0.700667    0.634000     0.006663
NI        0.300667    0.734000    0.667333     0.004307
CU        0.334000    0.700667    0.667333     0.006663
CU        0.334000    0.734000    0.634000     0.006663
NI        0.367333    0.700667    0.634000     0.004307
CU        0.367333    0.734000    0.667333     0.006663
NI        0.400667    0.700667    0.667333     0.004307
NI        0.400667    0.734000    0.634000     0.004307
CU        0.434000    0.700667    0.634000     0.006663
CU        0.434000    0.734000    0.667333     0.006663
NI        0.467333    0.700667    0.667333     0.004307
CU        0.467333    0.734000    0.634000     0.006663
CU        0.500667    0.700667    0.634000     0.006663
CU        0.500667    0.734000    0.667333     0.006663
CU        0.534000    0.700667    0.667333     0.006663
NI        0.534000    0.734000    0.634000     0.004307
CU        0.567333    0.700667    0.634000     0.006663
CU        0.567333    0.734000    0.667333     0.006663
CU        0.600667    0.700667    0.667333     0.006663
NI        0.600667    0.734000    0.634000     0.004307
CU        0.634000    0.700667    0.634000     0.006663
CU        0.634000    0.734000    0.667333     0.006663
NI        0.667333    0.700667    0.667333     0.004307
CU        0.667333    0.734000    0.634000     0.006663
CU        0.700667    0.700667    0.634000     0.006663
NI        0.234000    0.767333    0.634000     0.004307
CU        0.267333    0.767333    0.667333     0.006663
CU        0.267333    0.800667    0.634000     0.006663
CU        0.300667    0.767333    0.634000     0.006663
CU        0.300667    0.800667    0.667333     0.006663
CU        0.334000    0.767333    0.667333     0.006663
CU        0.334000    0.800667    0.634000     0.006663
CU        0.367333    0.767333    0.634000     0.006663
CU        0.367333    0.800667    0.667333     0.006663
NI        0.400667    0.767333    0.667333     0.004307
CU        0.400667    0.800667    0.634000     0.006663
CU        0.434000    0.767333    0.634000     0.006663
NI        0.434000    0.800667    0.667333     0.004307
CU        0.467333    0.767333    0.667333     0.006663
CU        0.467333    0.800667    0.634000     0.006663
CU        0.500667    0.767333    0.634000     0.006663
CU        0.500667    0.800667    0.667333     0.006663
NI        0.534000    0.767333    0.667333     0.004307
NI        0.534000    0.800667    0.634000     0.004307
CU        0.567333    0.767333    0.634000     0.006663
CU        0.567333    0.800667    0.667333     0.006663
CU        0.600667    0.767333    0.667333     0.006663
NI        0.600667    0.800667    0.634000     0.004307
NI        0.634000    0.767333    0.634000     0.004307
NI        0.367333    0.834000    0.634000     0.004307
CU        0.434000    0.834000    0.634000     0.006663
NI        0.500667    0.834000    0.634000     0.004307
CU        0.400667    0.067333    0.700667     0.006663
CU        0.467333    0.067333    0.700667     0.006663
NI        0.267333    0.134000    0.700667     0.004307
CU        0.300667    0.100667    0.700667     0.006663
CU        0.300667    0.134000    0.734000     0.006663
NI        0.334000    0.100667    0.734000     0.004307
NI        0.334000    0.134000    0.700667     0.004307
CU        0.367333    0.100667    0.700667     0.006663
CU        0.367333    0.134000    0.734000     0.006663
CU        0.400667    0.100667    0.734000     0.006663
CU        0.400667    0.134000    0.700667     0.006663
NI        0.434000    0.100667    0.700667     0.004307
CU        0.434000    0.134000    0.734000     0.006663
NI        0.467333    0.100667    0.734000     0.004307
NI        0.467333    0.134000    0.700667     0.004307
NI        0.500667    0.100667    0.700667     0.004307
NI        0.500667    0.134000    0.734000     0.004307
NI        0.534000    0.100667    0.734000     0.004307
NI        0.534000    0.134000    0.700667     0.004307
CU        0.567333    0.100667    0.700667     0.006663
CU        0.567333    0.134000    0.734000     0.006663
CU        0.600667    0.134000    0.700667     0.006663
CU        0.200667    0.200667    0.700667     0.006663
CU        0.234000    0.167333    0.700667     0.006663
CU        0.234000    0.200667    0.734000     0.006663
CU        0.267333    0.167333    0.734000     0.006663
NI        0.267333    0.200667    0.700667     0.004307
NI        0.300667    0.167333    0.700667     0.004307
CU        0.300667    0.200667    0.734000     0.006663
CU        0.334000    0.167333    0.734000     0.006663
CU        0.334000    0.200667    0.700667     0.006663
NI        0.367333    0.167333    0.700667     0.004307
NI        0.367333    0.200667    0.734000     0.004307
CU        0.400667    0.167333    0.734000     0.006663
CU        0.400667    0.200667    0.700667     0.006663
CU        0.434000    0.167333    0.700667     0.006663
CU        0.434000    0.200667    0.734000     0.006663
NI        0.467333    0.167333    0.734000     0.004307
CU        0.467333    0.200667    0.700667     0.006663
CU        0.500667    0.167333    0.700667     0.006663
CU        0.500667    0.200667    0.734000     0.006663
CU        0.534000    0.167333    0.734000     0.006663
CU        0.534000    0.200667    0.700667     0.006663
NI        0.567333    0.167333    0.700667     0.004307
NI        0.567333    0.200667    0.734000     0.004307
CU        0.600667    0.167333    0.734000     0.006663
CU        0.600667    0.200667    0.700667     0.006663
CU        0.634000    0.167333    0.700667     0.006663
CU        0.634000    0.200667    0.734000     0.006663
CU        0.667333    0.200667    0.700667     0.006663
CU        0.134000    0.267333    0.700667     0.006663
CU        0.167333    0.234000    0.700667     0.006663
CU        0.167333    0.267333    0.734000     0.006663
CU        0.200667    0.234000    0.734000     0.006663
NI        0.200667    0.267333    0.700667     0.004307
NI        0.234000    0.234000    0.700667     0.004307
CU        0.234000    0.267333    0.734000     0.006663
NI        0.267333    0.234000    0.734000     0.004307
CU        0.267333    0.267333    0.700667     0.006663
NI        0.300667    0.234000    0.700667     0.004307
CU        0.300667    0.267333    0.734000     0.006663
NI        0.334000    0.234000    0.734000     0.004307
NI        0.334000    0.267333    0.700667     0.004307
NI        0.367333    0.234000    0.700667     0.004307
CU        0.367333    0.267333    0.734000     0.006663
CU        0.400667    0.234000    0.734000     0.006663
NI        0.400667    0.267333    0.700667     0.004307
CU        0.434000    0.234000    0.700667     0.006663
NI        0.434000    0.267333    0.734000     0.004307
NI        0.467333    0.234000    0.734000     0.004307
CU        0.467333    0.267333    0.700667     0.006663
NI        0.500667    0.234000    0.700667     0.004307
CU        0.500667    0.267333    0.734000     0.006663
CU        0.534000    0.234000    0.734000     0.006663
NI        0.534000    0.267333    0.700667     0.004307
NI        0.567333    0.234000    0.700667     0.004307
NI        0.567333    0.267333    0.734000     0.004307
NI        0.600667    0.234000    0.734000     0.004307
CU        0.600667    0.267333    0.700667     0.006663
NI        0.634000    0.234000    0.700667     0.004307
NI        0.634000    0.267333    0.734000     0.004307
NI        0.667333    0.234000    0.734000     0.004307
NI        0.667333    0.267333    0.700667     0.004307
NI        0.700667    0.234000    0.700667     0.004307
CU        0.700667    0.267333    0.734000     0.006663
NI        0.734000    0.267333    0.700667     0.004307
NI        0.100667    0.300667    0.700667     0.004307
CU        0.100667    0.334000    0.734000     0.006663
CU        0.134000    0.300667    0.734000     0.006663
CU        0.134000    0.334000    0.700667     0.006663
NI        0.167333    0.300667    0.700667     0.004307
CU        0.167333    0.334000    0.734000     0.006663
CU        0.200667    0.300667    0.734000     0.006663
NI        0.200667    0.334000    0.700667     0.004307
NI        0.234000    0.300667    0.700667     0.004307
NI        0.234000    0.334000    0.734000     0.004307
CU        0.267333    0.300667    0.734000     0.006663
NI        0.267333    0.334000    0.700667     0.004307
NI        0.300667    0.300667    0.700667     0.004307
NI        0.300667    0.334000    0.734000     0.004307
CU        0.334000    0.300667    0.734000     0.006663
NI        0.334000    0.334000    0.700667     0.004307
CU        0.367333    0.300667    0.700667     0.006663
CU        0.367333    0.334000    0.734000     0.006663
CU        0.400667    0.300667    0.734000     0.006663
NI        0.400667    0.334000    0.700667     0.004307
CU        0.434000    0.300667    0.700667     0.006663
NI        0.434000    0.334000    0.734000     0.004307
CU        0.467333    0.300667    0.734000     0.006663
NI        0.467333    0.334000    0.700667     0.004307
CU        0.500667    0.300667    0.700667     0.006663
CU        0.500667    0.334000    0.734000     0.006663
NI        0.534000    0.300667    0.734000     0.004307
NI        0.534000    0.334000    0.700667     0.004307
CU        0.567333    0.300667    0.700667     0.006663
NI        0.567333    0.334000    0.734000     0.004307
NI        0.600667    0.300667    0.734000     0.004307
CU        0.600667    0.334000    0.700667     0.006663
CU        0.634000    0.300667    0.700667     0.006663
CU        0.634000    0.334000    0.734000     0.006663
NI        0.667333    0.300667    0.734000     0.004307
NI        0.667333    0.334000    0.700667     0.004307
NI        0.700667    0.300667    0.700667     0.004307
NI        0.700667    0.334000    0.734000     0.004307
NI        0.734000    0.300667    0.734000     0.004307
NI        0.734000    0.334000    0.700667     0.004307
NI        0.767333    0.300667    0.700667     0.004307
CU        0.767333    0.334000    0.734000     0.006663
CU        0.067333    0.400667    0.700667     0.006663
NI        0.100667    0.367333    0.700667     0.004307
NI        0.100667    0.400667    0.734000     0.004307
NI        0.134000    0.367333    0.734000     0.004307
NI        0.134000    0.400667    0.700667     0.004307
NI        0.167333    0.367333    0.700667     0.004307
CU        0.167333    0.400667    0.734000     0.006663
NI        0.200667    0.367333    0.734000     0.004307
CU        0.200667    0.400667    0.700667     0.006663
CU        0.234000    0.367333    0.700667     0.006663
NI        0.234000    0.400667    0.734000     0.004307
CU        0.267333    0.367333    0.734000     0.006663
CU        0.267333    0.400667    0.700667     0.006663
NI        0.300667    0.367333    0.700667     0.004307
NI        0.300667    0.400667    0.734000     0.004307
NI        0.334000    0.367333    0.734000     0.004307
CU        0.334000    0.400667    0.700667     0.006663
CU        0.367333    0.367333    0.700667     0.006663
NI        0.367333    0.400667    0.734000     0.004307
NI        0.400667    0.367333    0.734000     0.004307
CU        0.400667    0.400667    0.700667     0.006663
CU        0.434000    0.367333    0.700667     0.006663
NI        0.434000    0.400667    0.734000     0.004307
NI        0.467333    0.367333    0.734000     0.004307
NI        0.467333    0.400667    0.700667     0.004307
CU        0.500667    0.367333    0.700667     0.006663
CU        0.500667    0.400667    0.734000     0.006663
CU        0.534000    0.367333    0.734000     0.006663
CU        0.534000    0.400667    0.700667     0.006663
NI        0.567333    0.367333    0.700667     0.004307
NI        0.567333    0.400667    0.734000     0.004307
NI        0.600667    0.367333    0.734000     0.004307
NI        0.600667    0.400667    0.700667     0.004307
CU        0.634000    0.367333    0.700667     0.006663
CU        0.634000    0.400667    0.734000     0.006663
CU        0.667333    0.367333    0.734000     0.006663
CU        0.667333    0.400667    0.700667     0.006663
NI        0.700667    0.367333    0.700667     0.004307
CU        0.700667    0.400667    0.734000     0.006663
NI        0.734000    0.367333    0.734000     0.004307
CU        0.734000    0.400667    0.700667     0.006663
CU        0.767333    0.367333    0.700667     0.006663
NI        0.767333    0.400667    0.734000     0.004307
CU        0.800667    0.400667    0.700667     0.006663
CU        0.067333    0.467333    0.700667     0.006663
CU        0.100667    0.434000    0.700667     0.006663
CU        0.100667    0.467333    0.734000     0.006663
NI        0.134000    0.434000    0.734000     0.004307
NI        0.134000    0.467333    0.700667     0.004307
NI        0.167333    0.434000    0.700667     0.004307
NI        0.167333    0.467333    0.734000     0.004307
NI        0.200667    0.434000    0.734000     0.004307
CU        0.200667    0.467333    0.700667     0.006663
NI        0.234000    0.434000    0.700667     0.004307
CU        0.234000    0.467333    0.734000     0.006663
NI        0.267333    0.434000    0.734000     0.004307
NI        0.267333    0.467333    0.700667     0.004307
CU        0.300667    0.434000    0.700667     0.006663
NI        0.300667    0.467333    0.734000     0.004307
CU        0.334000    0.434000    0.734000     0.006663
NI        0.334000    0.467333    0.700667     0.004307
NI        0.367333    0.434000    0.700667     0.004307
NI        0.367333    0.467333    0.734000     0.004307
NI        0.400667    0.434000    0.734000     0.004307
CU        0.400667    0.467333    0.700667     0.006663
CU        0.434000    0.434000    0.700667     0.006663
CU        0.434000    0.467333    0.734000     0.006663
NI        0.467333    0.434000    0.734000     0.004307
NI        0.467333    0.467333    0.700667     0.004307
CU        0.500667    0.434000    0.700667     0.006663
NI        0.500667    0.467333    0.734000     0.004307
NI        0.534000    0.434000    0.734000     0.004307
NI        0.534000    0.467333    0.700667     0.004307
NI        0.567333    0.434000    0.700667     0.004307
NI        0.567333    0.467333    0.734000     0.004307
NI        0.600667    0.434000    0.734000     0.004307
CU        0.600667    0.467333    0.700667     0.006663
NI        0.634000    0.434000    0.700667     0.004307
NI        0.634000    0.467333    0.734000     0.004307
CU        0.667333    0.434000    0.734000     0.006663
NI        0.667333    0.467333    0.700667     0.004307
CU        0.700667    0.434000    0.700667     0.006663
CU        0.700667    0.467333    0.734000     0.006663
CU        0.734000    0.434000    0.734000     0.006663
CU        0.734000    0.467333    0.700667     0.006663
CU        0.767333    0.434000    0.700667     0.006663
NI        0.767333    0.467333    0.734000     0.004307
CU        0.800667    0.467333    0.700667     0.006663
CU        0.100667    0.500667    0.700667     0.006663
NI        0.100667    0.534000    0.734000     0.004307
CU        0.134000    0.500667    0.734000     0.006663
NI        0.134000    0.534000    0.700667     0.004307
CU        0.167333    0.500667    0.700667     0.006663
NI        0.167333    0.534000    0.734000     0.004307
NI        0.200667    0.500667    0.734000     0.004307
CU        0.200667    0.534000    0.700667     0.006663
NI        0.234000    0.500667    0.700667     0.004307
CU        0.234000    0.534000    0.734000     0.006663
CU        0.267333    0.500667    0.734000     0.006663
CU        0.267333    0.534000    0.700667     0.006663
NI        0.300667    0.500667    0.700667     0.004307
NI        0.300667    0.534000    0.734000     0.004307
CU        0.334000    0.500667    0.734000     0.006663
CU        0.334000    0.534000    0.700667     0.006663
NI        0.367333    0.500667    0.700667     0.004307
NI        0.367333    0.534000    0.734000     0.004307
CU        0.400667    0.500667    0.734000     0.006663
CU        0.400667    0.534000    0.700667     0.006663
CU        0.434000    0.500667    0.700667     0.006663
NI        0.434000    0.534000    0.734000     0.004307
NI        0.467333    0.500667    0.734000     0.004307
NI        0.467333    0.534000    0.700667     0.004307
NI        0.500667    0.500667    0.700667     0.004307
NI        0.500667    0.534000    0.734000     0.004307
CU        0.534000    0.500667    0.734000     0.006663
NI        0.534000    0.534000    0.700667     0.004307
CU        0.567333    0.500667    0.700667     0.006663
CU        0.567333    0.534000    0.734000     0.006663
CU        0.600667    0.500667    0.734000     0.006663
NI        0.600667    0.534000    0.700667     0.004307
NI        0.634000    0.500667    0.700667     0.004307
CU        0.634000    0.534000    0.734000     0.006663
CU        0.667333    0.500667    0.734000     0.006663
CU        0.667333    0.534000    0.700667     0.006663
CU        0.700667    0.500667    0.700667     0.006663
CU        0.700667    0.534000    0.734000     0.006663
CU        0.734000    0.500667    0.734000     0.006663
NI        0.734000    0.534000    0.700667     0.004307
CU        0.767333    0.500667    0.700667     0.006663
CU        0.767333    0.534000    0.734000     0.006663
NI        0.100667    0.567333    0.700667     0.004307
CU        0.134000    0.567333    0.734000     0.006663
NI        0.134000    0.600667    0.700667     0.004307
NI        0.167333    0.567333    0.700667     0.004307
CU        0.167333    0.600667    0.734000     0.006663
NI        0.200667    0.567333    0.734000     0.004307
CU        0.200667    0.600667    0.700667     0.006663
CU        0.234000    0.567333    0.700667     0.006663
CU        0.234000    0.600667    0.734000     0.006663
CU        0.267333    0.567333    0.734000     0.006663
CU        0.267333    0.600667    0.700667     0.006663
CU        0.300667    0.567333    0.700667     0.006663
NI        0.300667    0.600667    0.734000     0.004307
CU        0.334000    0.567333    0.734000     0.006663
CU        0.334000    0.600667    0.700667     0.006663
NI        0.367333    0.567333    0.700667     0.004307
CU        0.367333    0.600667    0.734000     0.006663
CU        0.400667    0.567333    0.734000     0.006663
CU        0.400667    0.600667    0.700667     0.006663
CU        0.434000    0.567333    0.700667     0.006663
CU        0.434000    0.600667    0.734000     0.006663
NI        0.467333    0.567333    0.734000     0.004307
CU        0.467333    0.600667    0.700667     0.006663
CU        0.500667    0.567333    0.700667     0.006663
NI        0.500667    0.600667    0.734000     0.004307
NI        0.534000    0.567333    0.734000     0.004307
CU        0.534000    0.600667    0.700667     0.006663
CU        0.567333    0.567333    0.700667     0.006663
CU        0.567333    0.600667    0.734000     0.006663
NI        0.600667    0.567333    0.734000     0.004307
CU        0.600667    0.600667    0.700667     0.006663
NI        0.634000    0.567333    0.700667     0.004307
NI        0.634000    0.600667    0.734000     0.004307
NI        0.667333    0.567333    0.734000     0.004307
CU        0.667333    0.600667    0.700667     0.006663
CU        0.700667    0.567333    0.700667     0.006663
CU        0.700667    0.600667    0.734000     0.006663
NI        0.734000    0.567333    0.734000     0.004307
NI        0.734000    0.600667    0.700667     0.004307
NI        0.767333    0.567333    0.700667     0.004307
CU        0.167333    0.634000    0.700667     0.006663
CU        0.200667    0.634000    0.734000     0.006663
NI        0.200667    0.667333    0.700667     0.004307
CU        0.234000    0.634000    0.700667     0.006663
NI        0.234000    0.667333    0.734000     0.004307
NI        0.267333    0.634000    0.734000     0.004307
CU        0.267333    0.667333    0.700667     0.006663
CU        0.300667    0.634000    0.700667     0.006663
CU        0.300667    0.667333    0.734000     0.006663
NI        0.334000    0.634000    0.734000     0.004307
NI        0.334000    0.667333    0.700667     0.004307
CU        0.367333    0.634000    0.700667     0.006663
CU        0.367333    0.667333    0.734000     0.006663
NI        0.400667    0.634000    0.734000     0.004307
CU        0.400667    0.667333    0.700667     0.006663
NI        0.434000    0.634000    0.700667     0.004307
NI        0.434000    0.667333    0.734000     0.004307
NI        0.467333    0.634000    0.734000     0.004307
CU        0.467333    0.667333    0.700667     0.006663
CU        0.500667    0.634000    0.700667     0.006663
NI        0.500667    0.667333    0.734000     0.004307
CU        0.534000    0.634000    0.734000     0.006663
CU        0.534000    0.667333    0.700667     0.006663
NI        0.567333    0.634000    0.700667     0.004307
NI        0.567333    0.667333    0.734000     0.004307
NI        0.600667    0.634000    0.734000     0.004307
NI        0.600667    0.667333    0.700667     0.004307
NI        0.634000    0.634000    0.700667     0.004307
NI        0.634000    0.667333    0.734000     0.004307
NI        0.667333    0.634000    0.734000     0.004307
CU        0.667333    0.667333    0.700667     0.006663
NI        0.700667    0.634000    0.700667     0.004307
CU        0.234000    0.700667    0.700667     0.006663
CU        0.267333    0.700667    0.734000     0.006663
CU        0.267333    0.734000    0.700667     0.006663
NI        0.300667    0.700667    0.700667     0.004307
NI        0.300667    0.734000    0.734000     0.004307
NI        0.334000    0.700667    0.734000     0.004307
NI        0.334000    0.734000    0.700667     0.004307
NI        0.367333    0.700667    0.700667     0.004307
NI        0.367333    0.734000    0.734000     0.004307
NI        0.400667    0.700667    0.734000     0.004307
NI        0.400667    0.734000    0.700667     0.004307
NI        0.434000    0.700667    0.700667     0.004307
NI        0.434000    0.734000    0.734000     0.004307
CU        0.467333    0.700667    0.734000     0.006663
NI        0.467333    0.734000    0.700667     0.004307
NI        0.500667    0.700667    0.700667     0.004307
NI        0.500667    0.734000    0.734000     0.004307
CU        0.534000    0.700667    0.734000     0.006663
CU        0.534000    0.734000    0.700667     0.006663
CU        0.567333    0.700667    0.700667     0.006663
CU        0.567333    0.734000    0.734000     0.006663
CU        0.600667    0.700667    0.734000     0.006663
NI        0.600667    0.734000    0.700667     0.004307
NI        0.634000    0.700667    0.700667     0.004307
CU        0.300667    0.767333    0.700667     0.006663
CU        0.334000    0.767333    0.734000     0.006663
CU        0.367333    0.767333    0.700667     0.006663
NI        0.400667    0.767333    0.734000     0.004307
NI        0.400667    0.800667    0.700667     0.004307
NI        0.434000    0.767333    0.700667     0.004307
CU        0.467333    0.767333    0.734000     0.006663
CU        0.467333    0.800667    0.700667     0.006663
CU        0.500667    0.767333    0.700667     0.006663
CU        0.534000    0.767333    0.734000     0.006663
CU        0.567333    0.767333    0.700667     0.006663
CU        0.334000    0.134000    0.767333     0.006663
CU        0.400667    0.134000    0.767333     0.006663
CU        0.467333    0.134000    0.767333     0.006663
CU        0.534000    0.134000    0.767333     0.006663
CU        0.267333    0.200667    0.767333     0.006663
NI        0.300667    0.167333    0.767333     0.004307
CU        0.300667    0.200667    0.800667     0.006663
CU        0.334000    0.200667    0.767333     0.006663
CU        0.367333    0.167333    0.767333     0.006663
CU        0.367333    0.200667    0.800667     0.006663
CU        0.400667    0.167333    0.800667     0.006663
CU        0.400667    0.200667    0.767333     0.006663
NI        0.434000    0.167333    0.767333     0.004307
CU        0.434000    0.200667    0.800667     0.006663
CU        0.467333    0.167333    0.800667     0.006663
CU        0.467333    0.200667    0.767333     0.006663
CU        0.500667    0.167333    0.767333     0.006663
NI        0.500667    0.200667    0.800667     0.004307
NI        0.534000    0.200667    0.767333     0.004307
CU        0.567333    0.167333    0.767333     0.006663
NI        0.567333    0.200667    0.800667     0.004307
NI        0.600667    0.200667    0.767333     0.004307
NI        0.200667    0.267333    0.767333     0.004307
NI        0.234000    0.234000    0.767333     0.004307
CU        0.234000    0.267333    0.800667     0.006663
NI        0.267333    0.234000    0.800667     0.004307
CU        0.267333    0.267333    0.767333     0.006663
NI        0.300667    0.234000    0.767333     0.004307
NI        0.300667    0.267333    0.800667     0.004307
CU        0.334000    0.234000    0.800667     0.006663
CU        0.334000    0.267333    0.767333     0.006663
CU        0.367333    0.234000    0.767333     0.006663
NI        0.367333    0.267333    0.800667     0.004307
NI        0.400667    0.234000    0.800667     0.004307
CU        0.400667    0.267333    0.767333     0.006663
CU        0.434000    0.234000    0.767333     0.006663
NI        0.434000    0.267333    0.800667     0.004307
NI        0.467333    0.234000    0.800667     0.004307
CU        0.467333    0.267333    0.767333     0.006663
CU        0.500667    0.234000    0.767333     0.006663
NI        0.500667    0.267333    0.800667     0.004307
CU        0.534000    0.234000    0.800667     0.006663
CU        0.534000    0.267333    0.767333     0.006663
CU        0.567333    0.234000    0.767333     0.006663
NI        0.567333    0.267333    0.800667     0.004307
CU        0.600667    0.234000    0.800667     0.006663
CU        0.600667    0.267333    0.767333     0.006663
CU        0.634000    0.234000    0.767333     0.006663
NI        0.634000    0.267333    0.800667     0.004307
CU        0.667333    0.267333    0.767333     0.006663
NI        0.134000    0.334000    0.767333     0.004307
CU        0.167333    0.300667    0.767333     0.006663
CU        0.200667    0.300667    0.800667     0.006663
NI        0.200667    0.334000    0.767333     0.004307
NI        0.234000    0.300667    0.767333     0.004307
NI        0.234000    0.334000    0.800667     0.004307
NI        0.267333    0.300667    0.800667     0.004307
CU        0.267333    0.334000    0.767333     0.006663
CU        0.300667    0.300667    0.767333     0.006663
NI        0.300667    0.334000    0.800667     0.004307
CU        0.334000    0.300667    0.800667     0.006663
NI        0.334000    0.334000    0.767333     0.004307
CU        0.367333    0.300667    0.767333     0.006663
NI        0.367333    0.334000    0.800667     0.004307
CU        0.400667    0.300667    0.800667     0.006663
CU        0.400667    0.334000    0.767333     0.006663
NI        0.434000    0.300667    0.767333     0.004307
CU        0.434000    0.334000    0.800667     0.006663
NI        0.467333    0.300667    0.800667     0.004307
CU        0.467333    0.334000    0.767333     0.006663
CU        0.500667    0.300667    0.767333     0.006663
CU        0.500667    0.334000    0.800667     0.006663
CU        0.534000    0.300667    0.800667     0.006663
CU        0.534000    0.334000    0.767333     0.006663
NI        0.567333    0.300667    0.767333     0.004307
CU        0.567333    0.334000    0.800667     0.006663
CU        0.600667    0.300667    0.800667     0.006663
NI        0.600667    0.334000    0.767333     0.004307
NI        0.634000    0.300667    0.767333     0.004307
CU        0.634000    0.334000    0.800667     0.006663
NI        0.667333    0.300667    0.800667     0.004307
CU        0.667333    0.334000    0.767333     0.006663
NI        0.700667    0.300667    0.767333     0.004307
NI        0.734000    0.334000    0.767333     0.004307
CU        0.134000    0.400667    0.767333     0.006663
NI        0.167333    0.367333    0.767333     0.004307
NI        0.167333    0.400667    0.800667     0.004307
NI        0.200667    0.367333    0.800667     0.004307
CU        0.200667    0.400667    0.767333     0.006663
CU        0.234000    0.367333    0.767333     0.006663
NI        0.234000    0.400667    0.800667     0.004307
CU        0.267333    0.367333    0.800667     0.006663
NI        0.267333    0.400667    0.767333     0.004307
NI        0.300667    0.367333    0.767333     0.004307
NI        0.300667    0.400667    0.800667     0.004307
CU        0.334000    0.367333    0.800667     0.006663
NI        0.334000    0.400667    0.767333     0.004307
CU        0.367333    0.367333    0.767333     0.006663
CU        0.367333    0.400667    0.800667     0.006663
CU        0.400667    0.367333    0.800667     0.006663
CU        0.400667    0.400667    0.767333     0.006663
CU        0.434000    0.367333    0.767333     0.006663
CU        0.434000    0.400667    0.800667     0.006663
CU        0.467333    0.367333    0.800667     0.006663
CU        0.467333    0.400667    0.767333     0.006663
CU        0.500667    0.367333    0.767333     0.006663
CU        0.500667    0.400667    0.800667     0.006663
NI        0.534000    0.367333    0.800667     0.004307
CU        0.534000    0.400667    0.767333     0.006663
CU        0.567333    0.367333    0.767333     0.006663
NI        0.567333    0.400667    0.800667     0.004307
NI        0.600667    0.367333    0.800667     0.004307
CU        0.600667    0.400667    0.767333     0.006663
CU        0.634000    0.367333    0.767333     0.006663
NI        0.634000    0.400667    0.800667     0.004307
NI        0.667333    0.367333    0.800667     0.004307
NI        0.667333    0.400667    0.767333     0.004307
NI        0.700667    0.367333    0.767333     0.004307
CU        0.700667    0.400667    0.800667     0.006663
CU        0.734000    0.400667    0.767333     0.006663
NI        0.134000    0.467333    0.767333     0.004307
NI        0.167333    0.434000    0.767333     0.004307
NI        0.167333    0.467333    0.800667     0.004307
CU        0.200667    0.434000    0.800667     0.006663
NI        0.200667    0.467333    0.767333     0.004307
CU        0.234000    0.434000    0.767333     0.006663
NI        0.234000    0.467333    0.800667     0.004307
NI        0.267333    0.434000    0.800667     0.004307
CU        0.267333    0.467333    0.767333     0.006663
CU        0.300667    0.434000    0.767333     0.006663
CU        0.300667    0.467333    0.800667     0.006663
NI        0.334000    0.434000    0.800667     0.004307
NI        0.334000    0.467333    0.767333     0.004307
NI        0.367333    0.434000    0.767333     0.004307
CU        0.367333    0.467333    0.800667     0.006663
CU        0.400667    0.434000    0.800667     0.006663
NI        0.400667    0.467333    0.767333     0.004307
CU        0.434000    0.434000    0.767333     0.006663
NI        0.434000    0.467333    0.800667     0.004307
NI        0.467333    0.434000    0.800667     0.004307
NI        0.467333    0.467333    0.767333     0.004307
NI        0.500667    0.434000    0.767333     0.004307
NI        0.500667    0.467333    0.800667     0.004307
NI        0.534000    0.434000    0.800667     0.004307
NI        0.534000    0.467333    0.767333     0.004307
NI        0.567333    0.434000    0.767333     0.004307
NI        0.567333    0.467333    0.800667     0.004307
CU        0.600667    0.434000    0.800667     0.006663
NI        0.600667    0.467333    0.767333     0.004307
CU        0.634000    0.434000    0.767333     0.006663
NI        0.634000    0.467333    0.800667     0.004307
NI        0.667333    0.434000    0.800667     0.004307
NI        0.667333    0.467333    0.767333     0.004307
CU        0.700667    0.434000    0.767333     0.006663
CU        0.700667    0.467333    0.800667     0.006663
CU        0.734000    0.467333    0.767333     0.006663
NI        0.134000    0.534000    0.767333     0.004307
CU        0.167333    0.500667    0.767333     0.006663
CU        0.200667    0.500667    0.800667     0.006663
NI        0.200667    0.534000    0.767333     0.004307
CU        0.234000    0.500667    0.767333     0.006663
CU        0.234000    0.534000    0.800667     0.006663
NI        0.267333    0.500667    0.800667     0.004307
CU        0.267333    0.534000    0.767333     0.006663
NI        0.300667    0.500667    0.767333     0.004307
CU        0.300667    0.534000    0.800667     0.006663
NI        0.334000    0.500667    0.800667     0.004307
NI        0.334000    0.534000    0.767333     0.004307
NI        0.367333    0.500667    0.767333     0.004307
NI        0.367333    0.534000    0.800667     0.004307
NI        0.400667    0.500667    0.800667     0.004307
NI        0.400667    0.534000    0.767333     0.004307
NI        0.434000    0.500667    0.767333     0.004307
CU        0.434000    0.534000    0.800667     0.006663
NI        0.467333    0.500667    0.800667     0.004307
CU        0.467333    0.534000    0.767333     0.006663
CU        0.500667    0.500667    0.767333     0.006663
NI        0.500667    0.534000    0.800667     0.004307
NI        0.534000    0.500667    0.800667     0.004307
NI        0.534000    0.534000    0.767333     0.004307
CU        0.567333    0.500667    0.767333     0.006663
NI        0.567333    0.534000    0.800667     0.004307
CU        0.600667    0.500667    0.800667     0.006663
CU        0.600667    0.534000    0.767333     0.006663
CU        0.634000    0.500667    0.767333     0.006663
NI        0.634000    0.534000    0.800667     0.004307
CU        0.667333    0.500667    0.800667     0.006663
CU        0.667333    0.534000    0.767333     0.006663
CU        0.700667    0.500667    0.767333     0.006663
NI        0.734000    0.534000    0.767333     0.004307
CU        0.167333    0.567333    0.767333     0.006663
CU        0.200667    0.567333    0.800667     0.006663
NI        0.200667    0.600667    0.767333     0.004307
CU        0.234000    0.567333    0.767333     0.006663
CU        0.234000    0.600667    0.800667     0.006663
NI        0.267333    0.567333    0.800667     0.004307
CU        0.267333    0.600667    0.767333     0.006663
CU        0.300667    0.567333    0.767333     0.006663
NI        0.300667    0.600667    0.800667     0.004307
NI        0.334000    0.567333    0.800667     0.004307
CU        0.334000    0.600667    0.767333     0.006663
CU        0.367333    0.567333    0.767333     0.006663
NI        0.367333    0.600667    0.800667     0.004307
CU        0.400667    0.567333    0.800667     0.006663
CU        0.400667    0.600667    0.767333     0.006663
CU        0.434000    0.567333    0.767333     0.006663
CU        0.434000    0.600667    0.800667     0.006663
CU        0.467333    0.567333    0.800667     0.006663
NI        0.467333    0.600667    0.767333     0.004307
CU        0.500667    0.567333    0.767333     0.006663
NI        0.500667    0.600667    0.800667     0.004307
NI        0.534000    0.567333    0.800667     0.004307
CU        0.534000    0.600667    0.767333     0.006663
NI        0.567333    0.567333    0.767333     0.004307
CU        0.567333    0.600667    0.800667     0.006663
CU        0.600667    0.567333    0.800667     0.006663
CU        0.600667    0.600667    0.767333     0.006663
CU        0.634000    0.567333    0.767333     0.006663
NI        0.634000    0.600667    0.800667     0.004307
NI        0.667333    0.567333    0.800667     0.004307
CU        0.667333    0.600667    0.767333     0.006663
CU        0.700667    0.567333    0.767333     0.006663
NI        0.234000    0.634000    0.767333     0.004307
NI        0.267333    0.634000    0.800667     0.004307
NI        0.267333    0.667333    0.767333     0.004307
CU        0.300667    0.634000    0.767333     0.006663
CU        0.300667    0.667333    0.800667     0.006663
CU        0.334000    0.634000    0.800667     0.006663
NI        0.334000    0.667333    0.767333     0.004307
CU        0.367333    0.634000    0.767333     0.006663
CU        0.367333    0.667333    0.800667     0.006663
CU        0.400667    0.634000    0.800667     0.006663
CU        0.400667    0.667333    0.767333     0.006663
NI        0.434000    0.634000    0.767333     0.004307
CU        0.434000    0.667333    0.800667     0.006663
NI        0.467333    0.634000    0.800667     0.004307
NI        0.467333    0.667333    0.767333     0.004307
CU        0.500667    0.634000    0.767333     0.006663
CU        0.500667    0.667333    0.800667     0.006663
NI        0.534000    0.634000    0.800667     0.004307
CU        0.534000    0.667333    0.767333     0.006663
NI        0.567333    0.634000    0.767333     0.004307
CU        0.567333    0.667333    0.800667     0.006663
CU        0.600667    0.634000    0.800667     0.006663
CU        0.600667    0.667333    0.767333     0.006663
NI        0.634000    0.634000    0.767333     0.004307
NI        0.300667    0.700667    0.767333     0.004307
NI        0.334000    0.734000    0.767333     0.004307
CU        0.367333    0.700667    0.767333     0.006663
NI        0.400667    0.700667    0.800667     0.004307
NI        0.400667    0.734000    0.767333     0.004307
NI        0.434000    0.700667    0.767333     0.004307
CU        0.467333    0.700667    0.800667     0.006663
NI        0.467333    0.734000    0.767333     0.004307
CU        0.500667    0.700667    0.767333     0.006663
CU        0.534000    0.734000    0.767333     0.006663
CU        0.567333    0.700667    0.767333     0.006663
NI        0.334000    0.267333    0.834000     0.004307
NI        0.367333    0.234000    0.834000     0.004307
CU        0.400667    0.267333    0.834000     0.006663
NI        0.434000    0.234000    0.834000     0.004307
CU        0.467333    0.267333    0.834000     0.006663
NI        0.500667    0.234000    0.834000     0.004307
CU        0.534000    0.267333    0.834000     0.006663
NI        0.267333    0.334000    0.834000     0.004307
CU        0.300667    0.300667    0.834000     0.006663
CU        0.334000    0.334000    0.834000     0.006663
CU        0.367333    0.300667    0.834000     0.006663
NI        0.367333    0.334000    0.867333     0.004307
CU        0.400667    0.300667    0.867333     0.006663
NI        0.400667    0.334000    0.834000     0.004307
CU        0.434000    0.300667    0.834000     0.006663
CU        0.434000    0.334000    0.867333     0.006663
NI        0.467333    0.300667    0.867333     0.004307
CU        0.467333    0.334000    0.834000     0.006663
NI        0.500667    0.300667    0.834000     0.004307
NI        0.500667    0.334000    0.867333     0.004307
CU        0.534000    0.334000    0.834000     0.006663
NI        0.567333    0.300667    0.834000     0.004307
NI        0.600667    0.334000    0.834000     0.004307
NI        0.234000    0.367333    0.834000     0.004307
NI        0.267333    0.400667    0.834000     0.004307
CU        0.300667    0.367333    0.834000     0.006663
NI        0.300667    0.400667    0.867333     0.004307
NI        0.334000    0.367333    0.867333     0.004307
CU        0.334000    0.400667    0.834000     0.006663
CU        0.367333    0.367333    0.834000     0.006663
CU        0.367333    0.400667    0.867333     0.006663
NI        0.400667    0.367333    0.867333     0.004307
NI        0.400667    0.400667    0.834000     0.004307
CU        0.434000    0.367333    0.834000     0.006663
NI        0.434000    0.400667    0.867333     0.004307
CU        0.467333    0.367333    0.867333     0.006663
CU        0.467333    0.400667    0.834000     0.006663
NI        0.500667    0.367333    0.834000     0.004307
CU        0.500667    0.400667    0.867333     0.006663
NI        0.534000    0.367333    0.867333     0.004307
NI        0.534000    0.400667    0.834000     0.004307
CU        0.567333    0.367333    0.834000     0.006663
NI        0.567333    0.400667    0.867333     0.004307
CU        0.600667    0.400667    0.834000     0.006663
CU        0.634000    0.367333    0.834000     0.006663
NI        0.234000    0.434000    0.834000     0.004307
NI        0.267333    0.467333    0.834000     0.004307
NI        0.300667    0.434000    0.834000     0.004307
NI        0.300667    0.467333    0.867333     0.004307
NI        0.334000    0.434000    0.867333     0.004307
NI        0.334000    0.467333    0.834000     0.004307
NI        0.367333    0.434000    0.834000     0.004307
CU        0.367333    0.467333    0.867333     0.006663
NI        0.400667    0.434000    0.867333     0.004307
CU        0.400667    0.467333    0.834000     0.006663
CU        0.434000    0.434000    0.834000     0.006663
NI        0.434000    0.467333    0.867333     0.004307
NI        0.467333    0.434000    0.867333     0.004307
CU        0.467333    0.467333    0.834000     0.006663
NI        0.500667    0.434000    0.834000     0.004307
NI        0.500667    0.467333    0.867333     0.004307
NI        0.534000    0.434000    0.867333     0.004307
NI        0.534000    0.467333    0.834000     0.004307
CU        0.567333    0.434000    0.834000     0.006663
NI        0.567333    0.467333    0.867333     0.004307
NI        0.600667    0.467333    0.834000     0.004307
NI        0.634000    0.434000    0.834000     0.004307
NI        0.234000    0.500667    0.834000     0.004307
NI        0.267333    0.534000    0.834000     0.004307
CU        0.300667    0.500667    0.834000     0.006663
NI        0.334000    0.500667    0.867333     0.004307
CU        0.334000    0.534000    0.834000     0.006663
CU        0.367333    0.500667    0.834000     0.006663
NI        0.367333    0.534000    0.867333     0.004307
NI        0.400667    0.500667    0.867333     0.004307
CU        0.400667    0.534000    0.834000     0.006663
CU        0.434000    0.500667    0.834000     0.006663
NI        0.434000    0.534000    0.867333     0.004307
NI        0.467333    0.500667    0.867333     0.004307
CU        0.467333    0.534000    0.834000     0.006663
CU        0.500667    0.500667    0.834000     0.006663
CU        0.500667    0.534000    0.867333     0.006663
NI        0.534000    0.500667    0.867333     0.004307
CU        0.534000    0.534000    0.834000     0.006663
CU        0.567333    0.500667    0.834000     0.006663
NI        0.600667    0.534000    0.834000     0.004307
NI        0.634000    0.500667    0.834000     0.004307
CU        0.300667    0.567333    0.834000     0.006663
CU        0.334000    0.600667    0.834000     0.006663
NI        0.367333    0.567333    0.834000     0.004307
CU        0.400667    0.567333    0.867333     0.006663
CU        0.400667    0.600667    0.834000     0.006663
CU        0.434000    0.567333    0.834000     0.006663
CU        0.467333    0.567333    0.867333     0.006663
NI        0.467333    0.600667    0.834000     0.004307
NI        0.500667    0.567333    0.834000     0.004307
CU        0.534000    0.600667    0.834000     0.006663
CU        0.567333    0.567333    0.834000     0.006663
CU        0.367333    0.634000    0.834000     0.006663
NI        0.434000    0.634000    0.834000     0.004307
CU        0.500667    0.634000    0.834000     0.006663
