data_00001
_audit_creation_method   'DISCUS'

_data_chemical_name_common 'Au.cell: lattice parameter from Pearson85'

_cell_length_a             73.4202
_cell_length_b             73.4202
_cell_length_c             73.4202
_cell_angle_alpha     90.0000
_cell_angle_beta      90.0000
_cell_angle_gamma     90.0000

_symmetry_space_group_name_H-M   'P1              '

loop_
_atom_site_label
_atom_site_symbol
_atom_site_fract_x
_atom_site_fract_y
_atom_site_fract_z
_atom_site_u_iso_or_equiv
PD2682   PD        0.389444    0.306111    0.139444     0.007504
PD2686   PD        0.445000    0.306111    0.139444     0.007504
PD2690   PD        0.500556    0.306111    0.139444     0.007504
PD2746   PD        0.333889    0.361667    0.139444     0.007504
AU2747   AU        0.361667    0.333889    0.139444     0.007504
PD2750   PD        0.389444    0.361667    0.139444     0.007504
PD2751   PD        0.417222    0.333889    0.139444     0.007504
PD2754   PD        0.445000    0.361667    0.139444     0.007504
PD2755   PD        0.472778    0.333889    0.139444     0.007504
PD2758   PD        0.500556    0.361667    0.139444     0.007504
PD2759   PD        0.528333    0.333889    0.139444     0.007504
PD2762   PD        0.556111    0.361667    0.139444     0.007504
PD2811   PD        0.306111    0.389444    0.139444     0.007504
PD2814   PD        0.333889    0.417222    0.139444     0.007504
PD2815   PD        0.361667    0.389444    0.139444     0.007504
PD2818   PD        0.389444    0.417222    0.139444     0.007504
PD2819   PD        0.417222    0.389444    0.139444     0.007504
PD2820   PD        0.417222    0.417222    0.111667     0.007504
PD2821   PD        0.445000    0.389444    0.111667     0.007504
PD2822   PD        0.445000    0.417222    0.139444     0.007504
PD2823   PD        0.472778    0.389444    0.139444     0.007504
PD2824   PD        0.472778    0.417222    0.111667     0.007504
PD2826   PD        0.500556    0.417222    0.139444     0.007504
PD2827   PD        0.528333    0.389444    0.139444     0.007504
PD2830   PD        0.556111    0.417222    0.139444     0.007504
PD2831   PD        0.583889    0.389444    0.139444     0.007504
PD2879   PD        0.306111    0.445000    0.139444     0.007504
PD2882   PD        0.333889    0.472778    0.139444     0.007504
PD2883   PD        0.361667    0.445000    0.139444     0.007504
PD2885   PD        0.389444    0.445000    0.111667     0.007504
PD2886   PD        0.389444    0.472778    0.139444     0.007504
PD2887   PD        0.417222    0.445000    0.139444     0.007504
PD2888   PD        0.417222    0.472778    0.111667     0.007504
PD2889   PD        0.445000    0.445000    0.111667     0.007504
PD2890   PD        0.445000    0.472778    0.139444     0.007504
PD2891   PD        0.472778    0.445000    0.139444     0.007504
PD2892   PD        0.472778    0.472778    0.111667     0.007504
PD2893   PD        0.500556    0.445000    0.111667     0.007504
AU2894   AU        0.500556    0.472778    0.139444     0.007504
PD2895   PD        0.528333    0.445000    0.139444     0.007504
AU2898   AU        0.556111    0.472778    0.139444     0.007504
PD2899   PD        0.583889    0.445000    0.139444     0.007504
PD2947   PD        0.306111    0.500556    0.139444     0.007504
PD2950   PD        0.333889    0.528333    0.139444     0.007504
PD2951   PD        0.361667    0.500556    0.139444     0.007504
PD2954   PD        0.389444    0.528333    0.139444     0.007504
PD2955   PD        0.417222    0.500556    0.139444     0.007504
PD2957   PD        0.445000    0.500556    0.111667     0.007504
PD2958   PD        0.445000    0.528333    0.139444     0.007504
PD2959   PD        0.472778    0.500556    0.139444     0.007504
PD2962   PD        0.500556    0.528333    0.139444     0.007504
PD2963   PD        0.528333    0.500556    0.139444     0.007504
PD2966   PD        0.556111    0.528333    0.139444     0.007504
PD2967   PD        0.583889    0.500556    0.139444     0.007504
PD3019   PD        0.361667    0.556111    0.139444     0.007504
PD3022   PD        0.389444    0.583889    0.139444     0.007504
PD3023   PD        0.417222    0.556111    0.139444     0.007504
PD3026   PD        0.445000    0.583889    0.139444     0.007504
PD3027   PD        0.472778    0.556111    0.139444     0.007504
PD3030   PD        0.500556    0.583889    0.139444     0.007504
PD3031   PD        0.528333    0.556111    0.139444     0.007504
PD3766   PD        0.333889    0.250556    0.195000     0.007504
PD3770   PD        0.389444    0.250556    0.195000     0.007504
PD3771   PD        0.417222    0.222778    0.195000     0.007504
PD3772   PD        0.417222    0.250556    0.167222     0.007504
PD3774   PD        0.445000    0.250556    0.195000     0.007504
PD3775   PD        0.472778    0.222778    0.195000     0.007504
PD3776   PD        0.472778    0.250556    0.167222     0.007504
PD3778   PD        0.500556    0.250556    0.195000     0.007504
PD3782   PD        0.556111    0.250556    0.195000     0.007504
PD3830   PD        0.278333    0.306111    0.195000     0.007504
PD3831   PD        0.306111    0.278333    0.195000     0.007504
PD3832   PD        0.306111    0.306111    0.167222     0.007504
PD3834   PD        0.333889    0.306111    0.195000     0.007504
PD3835   PD        0.361667    0.278333    0.195000     0.007504
PD3836   PD        0.361667    0.306111    0.167222     0.007504
PD3837   PD        0.389444    0.278333    0.167222     0.007504
AU3838   AU        0.389444    0.306111    0.195000     0.007504
AU3839   AU        0.417222    0.278333    0.195000     0.007504
PD3840   PD        0.417222    0.306111    0.167222     0.007504
PD3841   PD        0.445000    0.278333    0.167222     0.007504
AU3842   AU        0.445000    0.306111    0.195000     0.007504
PD3843   PD        0.472778    0.278333    0.195000     0.007504
PD3844   PD        0.472778    0.306111    0.167222     0.007504
PD3845   PD        0.500556    0.278333    0.167222     0.007504
PD3846   PD        0.500556    0.306111    0.195000     0.007504
PD3847   PD        0.528333    0.278333    0.195000     0.007504
PD3848   PD        0.528333    0.306111    0.167222     0.007504
PD3850   PD        0.556111    0.306111    0.195000     0.007504
PD3851   PD        0.583889    0.278333    0.195000     0.007504
PD3852   PD        0.583889    0.306111    0.167222     0.007504
PD3854   PD        0.611667    0.306111    0.195000     0.007504
PD3895   PD        0.250556    0.333889    0.195000     0.007504
PD3898   PD        0.278333    0.361667    0.195000     0.007504
PD3899   PD        0.306111    0.333889    0.195000     0.007504
PD3900   PD        0.306111    0.361667    0.167222     0.007504
PD3901   PD        0.333889    0.333889    0.167222     0.007504
PD3902   PD        0.333889    0.361667    0.195000     0.007504
PD3903   PD        0.361667    0.333889    0.195000     0.007504
PD3904   PD        0.361667    0.361667    0.167222     0.007504
PD3905   PD        0.389444    0.333889    0.167222     0.007504
AU3906   AU        0.389444    0.361667    0.195000     0.007504
AU3907   AU        0.417222    0.333889    0.195000     0.007504
PD3908   PD        0.417222    0.361667    0.167222     0.007504
PD3909   PD        0.445000    0.333889    0.167222     0.007504
AU3910   AU        0.445000    0.361667    0.195000     0.007504
PD3911   PD        0.472778    0.333889    0.195000     0.007504
PD3912   PD        0.472778    0.361667    0.167222     0.007504
PD3913   PD        0.500556    0.333889    0.167222     0.007504
AU3914   AU        0.500556    0.361667    0.195000     0.007504
PD3915   PD        0.528333    0.333889    0.195000     0.007504
PD3916   PD        0.528333    0.361667    0.167222     0.007504
PD3917   PD        0.556111    0.333889    0.167222     0.007504
PD3918   PD        0.556111    0.361667    0.195000     0.007504
PD3919   PD        0.583889    0.333889    0.195000     0.007504
PD3920   PD        0.583889    0.361667    0.167222     0.007504
PD3922   PD        0.611667    0.361667    0.195000     0.007504
PD3923   PD        0.639444    0.333889    0.195000     0.007504
PD3962   PD        0.222778    0.417222    0.195000     0.007504
PD3963   PD        0.250556    0.389444    0.195000     0.007504
PD3964   PD        0.250556    0.417222    0.167222     0.007504
PD3965   PD        0.278333    0.389444    0.167222     0.007504
AU3966   AU        0.278333    0.417222    0.195000     0.007504
PD3967   PD        0.306111    0.389444    0.195000     0.007504
PD3968   PD        0.306111    0.417222    0.167222     0.007504
PD3969   PD        0.333889    0.389444    0.167222     0.007504
AU3970   AU        0.333889    0.417222    0.195000     0.007504
PD3971   PD        0.361667    0.389444    0.195000     0.007504
PD3972   PD        0.361667    0.417222    0.167222     0.007504
PD3973   PD        0.389444    0.389444    0.167222     0.007504
PD3974   PD        0.389444    0.417222    0.195000     0.007504
PD3975   PD        0.417222    0.389444    0.195000     0.007504
PD3976   PD        0.417222    0.417222    0.167222     0.007504
PD3977   PD        0.445000    0.389444    0.167222     0.007504
PD3978   PD        0.445000    0.417222    0.195000     0.007504
AU3979   AU        0.472778    0.389444    0.195000     0.007504
PD3980   PD        0.472778    0.417222    0.167222     0.007504
PD3981   PD        0.500556    0.389444    0.167222     0.007504
AU3982   AU        0.500556    0.417222    0.195000     0.007504
PD3983   PD        0.528333    0.389444    0.195000     0.007504
AU3984   AU        0.528333    0.417222    0.167222     0.007504
PD3985   PD        0.556111    0.389444    0.167222     0.007504
PD3986   PD        0.556111    0.417222    0.195000     0.007504
AU3987   AU        0.583889    0.389444    0.195000     0.007504
PD3988   PD        0.583889    0.417222    0.167222     0.007504
PD3989   PD        0.611667    0.389444    0.167222     0.007504
PD3990   PD        0.611667    0.417222    0.195000     0.007504
AU3991   AU        0.639444    0.389444    0.195000     0.007504
PD3992   PD        0.639444    0.417222    0.167222     0.007504
PD3994   PD        0.667222    0.417222    0.195000     0.007504
PD4030   PD        0.222778    0.472778    0.195000     0.007504
AU4031   AU        0.250556    0.445000    0.195000     0.007504
PD4032   PD        0.250556    0.472778    0.167222     0.007504
PD4033   PD        0.278333    0.445000    0.167222     0.007504
PD4034   PD        0.278333    0.472778    0.195000     0.007504
PD4035   PD        0.306111    0.445000    0.195000     0.007504
AU4036   AU        0.306111    0.472778    0.167222     0.007504
PD4037   PD        0.333889    0.445000    0.167222     0.007504
PD4038   PD        0.333889    0.472778    0.195000     0.007504
PD4039   PD        0.361667    0.445000    0.195000     0.007504
AU4040   AU        0.361667    0.472778    0.167222     0.007504
PD4041   PD        0.389444    0.445000    0.167222     0.007504
AU4042   AU        0.389444    0.472778    0.195000     0.007504
AU4043   AU        0.417222    0.445000    0.195000     0.007504
AU4044   AU        0.417222    0.472778    0.167222     0.007504
AU4045   AU        0.445000    0.445000    0.167222     0.007504
AU4046   AU        0.445000    0.472778    0.195000     0.007504
PD4047   PD        0.472778    0.445000    0.195000     0.007504
PD4048   PD        0.472778    0.472778    0.167222     0.007504
AU4049   AU        0.500556    0.445000    0.167222     0.007504
PD4050   PD        0.500556    0.472778    0.195000     0.007504
AU4051   AU        0.528333    0.445000    0.195000     0.007504
AU4052   AU        0.528333    0.472778    0.167222     0.007504
PD4053   PD        0.556111    0.445000    0.167222     0.007504
AU4054   AU        0.556111    0.472778    0.195000     0.007504
PD4055   PD        0.583889    0.445000    0.195000     0.007504
PD4056   PD        0.583889    0.472778    0.167222     0.007504
PD4057   PD        0.611667    0.445000    0.167222     0.007504
PD4058   PD        0.611667    0.472778    0.195000     0.007504
PD4059   PD        0.639444    0.445000    0.195000     0.007504
PD4060   PD        0.639444    0.472778    0.167222     0.007504
PD4062   PD        0.667222    0.472778    0.195000     0.007504
PD4099   PD        0.250556    0.500556    0.195000     0.007504
PD4101   PD        0.278333    0.500556    0.167222     0.007504
AU4102   AU        0.278333    0.528333    0.195000     0.007504
PD4103   PD        0.306111    0.500556    0.195000     0.007504
PD4104   PD        0.306111    0.528333    0.167222     0.007504
PD4105   PD        0.333889    0.500556    0.167222     0.007504
PD4106   PD        0.333889    0.528333    0.195000     0.007504
PD4107   PD        0.361667    0.500556    0.195000     0.007504
PD4108   PD        0.361667    0.528333    0.167222     0.007504
AU4109   AU        0.389444    0.500556    0.167222     0.007504
PD4110   PD        0.389444    0.528333    0.195000     0.007504
PD4111   PD        0.417222    0.500556    0.195000     0.007504
PD4112   PD        0.417222    0.528333    0.167222     0.007504
PD4113   PD        0.445000    0.500556    0.167222     0.007504
PD4114   PD        0.445000    0.528333    0.195000     0.007504
PD4115   PD        0.472778    0.500556    0.195000     0.007504
PD4116   PD        0.472778    0.528333    0.167222     0.007504
AU4117   AU        0.500556    0.500556    0.167222     0.007504
PD4118   PD        0.500556    0.528333    0.195000     0.007504
AU4119   AU        0.528333    0.500556    0.195000     0.007504
PD4120   PD        0.528333    0.528333    0.167222     0.007504
PD4121   PD        0.556111    0.500556    0.167222     0.007504
AU4122   AU        0.556111    0.528333    0.195000     0.007504
PD4123   PD        0.583889    0.500556    0.195000     0.007504
PD4124   PD        0.583889    0.528333    0.167222     0.007504
PD4125   PD        0.611667    0.500556    0.167222     0.007504
PD4126   PD        0.611667    0.528333    0.195000     0.007504
PD4127   PD        0.639444    0.500556    0.195000     0.007504
PD4167   PD        0.250556    0.556111    0.195000     0.007504
PD4170   PD        0.278333    0.583889    0.195000     0.007504
AU4171   AU        0.306111    0.556111    0.195000     0.007504
PD4172   PD        0.306111    0.583889    0.167222     0.007504
PD4173   PD        0.333889    0.556111    0.167222     0.007504
PD4174   PD        0.333889    0.583889    0.195000     0.007504
AU4175   AU        0.361667    0.556111    0.195000     0.007504
PD4176   PD        0.361667    0.583889    0.167222     0.007504
PD4177   PD        0.389444    0.556111    0.167222     0.007504
PD4178   PD        0.389444    0.583889    0.195000     0.007504
AU4179   AU        0.417222    0.556111    0.195000     0.007504
PD4180   PD        0.417222    0.583889    0.167222     0.007504
PD4181   PD        0.445000    0.556111    0.167222     0.007504
PD4182   PD        0.445000    0.583889    0.195000     0.007504
AU4183   AU        0.472778    0.556111    0.195000     0.007504
PD4184   PD        0.472778    0.583889    0.167222     0.007504
PD4185   PD        0.500556    0.556111    0.167222     0.007504
PD4186   PD        0.500556    0.583889    0.195000     0.007504
AU4187   AU        0.528333    0.556111    0.195000     0.007504
PD4188   PD        0.528333    0.583889    0.167222     0.007504
PD4189   PD        0.556111    0.556111    0.167222     0.007504
AU4190   AU        0.556111    0.583889    0.195000     0.007504
PD4191   PD        0.583889    0.556111    0.195000     0.007504
PD4192   PD        0.583889    0.583889    0.167222     0.007504
PD4194   PD        0.611667    0.583889    0.195000     0.007504
PD4195   PD        0.639444    0.556111    0.195000     0.007504
PD4239   PD        0.306111    0.611667    0.195000     0.007504
PD4242   PD        0.333889    0.639444    0.195000     0.007504
PD4243   PD        0.361667    0.611667    0.195000     0.007504
PD4245   PD        0.389444    0.611667    0.167222     0.007504
PD4246   PD        0.389444    0.639444    0.195000     0.007504
PD4247   PD        0.417222    0.611667    0.195000     0.007504
PD4248   PD        0.417222    0.639444    0.167222     0.007504
PD4249   PD        0.445000    0.611667    0.167222     0.007504
PD4250   PD        0.445000    0.639444    0.195000     0.007504
PD4251   PD        0.472778    0.611667    0.195000     0.007504
PD4252   PD        0.472778    0.639444    0.167222     0.007504
PD4253   PD        0.500556    0.611667    0.167222     0.007504
AU4254   AU        0.500556    0.639444    0.195000     0.007504
PD4255   PD        0.528333    0.611667    0.195000     0.007504
PD4258   PD        0.556111    0.639444    0.195000     0.007504
PD4259   PD        0.583889    0.611667    0.195000     0.007504
PD4315   PD        0.417222    0.667222    0.195000     0.007504
PD4319   PD        0.472778    0.667222    0.195000     0.007504
PD4854   PD        0.333889    0.195000    0.250556     0.007504
PD4858   PD        0.389444    0.195000    0.250556     0.007504
PD4859   PD        0.417222    0.167222    0.250556     0.007504
PD4860   PD        0.417222    0.195000    0.222778     0.007504
PD4862   PD        0.445000    0.195000    0.250556     0.007504
PD4863   PD        0.472778    0.167222    0.250556     0.007504
PD4864   PD        0.472778    0.195000    0.222778     0.007504
PD4866   PD        0.500556    0.195000    0.250556     0.007504
PD4870   PD        0.556111    0.195000    0.250556     0.007504
PD4918   PD        0.278333    0.250556    0.250556     0.007504
PD4919   PD        0.306111    0.222778    0.250556     0.007504
PD4920   PD        0.306111    0.250556    0.222778     0.007504
PD4921   PD        0.333889    0.222778    0.222778     0.007504
PD4922   PD        0.333889    0.250556    0.250556     0.007504
AU4923   AU        0.361667    0.222778    0.250556     0.007504
PD4924   PD        0.361667    0.250556    0.222778     0.007504
PD4925   PD        0.389444    0.222778    0.222778     0.007504
PD4926   PD        0.389444    0.250556    0.250556     0.007504
AU4927   AU        0.417222    0.222778    0.250556     0.007504
PD4928   PD        0.417222    0.250556    0.222778     0.007504
PD4929   PD        0.445000    0.222778    0.222778     0.007504
PD4930   PD        0.445000    0.250556    0.250556     0.007504
AU4931   AU        0.472778    0.222778    0.250556     0.007504
PD4932   PD        0.472778    0.250556    0.222778     0.007504
PD4933   PD        0.500556    0.222778    0.222778     0.007504
PD4934   PD        0.500556    0.250556    0.250556     0.007504
AU4935   AU        0.528333    0.222778    0.250556     0.007504
PD4936   PD        0.528333    0.250556    0.222778     0.007504
PD4937   PD        0.556111    0.222778    0.222778     0.007504
PD4938   PD        0.556111    0.250556    0.250556     0.007504
PD4939   PD        0.583889    0.222778    0.250556     0.007504
PD4940   PD        0.583889    0.250556    0.222778     0.007504
PD4942   PD        0.611667    0.250556    0.250556     0.007504
PD4982   PD        0.222778    0.306111    0.250556     0.007504
PD4983   PD        0.250556    0.278333    0.250556     0.007504
PD4984   PD        0.250556    0.306111    0.222778     0.007504
PD4985   PD        0.278333    0.278333    0.222778     0.007504
PD4986   PD        0.278333    0.306111    0.250556     0.007504
PD4987   PD        0.306111    0.278333    0.250556     0.007504
PD4988   PD        0.306111    0.306111    0.222778     0.007504
PD4989   PD        0.333889    0.278333    0.222778     0.007504
PD4990   PD        0.333889    0.306111    0.250556     0.007504
AU4991   AU        0.361667    0.278333    0.250556     0.007504
PD4992   PD        0.361667    0.306111    0.222778     0.007504
PD4993   PD        0.389444    0.278333    0.222778     0.007504
AU4994   AU        0.389444    0.306111    0.250556     0.007504
AU4995   AU        0.417222    0.278333    0.250556     0.007504
PD4996   PD        0.417222    0.306111    0.222778     0.007504
AU4997   AU        0.445000    0.278333    0.222778     0.007504
PD4998   PD        0.445000    0.306111    0.250556     0.007504
PD4999   PD        0.472778    0.278333    0.250556     0.007504
PD5000   PD        0.472778    0.306111    0.222778     0.007504
PD5001   PD        0.500556    0.278333    0.222778     0.007504
PD5002   PD        0.500556    0.306111    0.250556     0.007504
PD5003   PD        0.528333    0.278333    0.250556     0.007504
PD5004   PD        0.528333    0.306111    0.222778     0.007504
AU5005   AU        0.556111    0.278333    0.222778     0.007504
PD5006   PD        0.556111    0.306111    0.250556     0.007504
AU5007   AU        0.583889    0.278333    0.250556     0.007504
AU5008   AU        0.583889    0.306111    0.222778     0.007504
PD5009   PD        0.611667    0.278333    0.222778     0.007504
PD5010   PD        0.611667    0.306111    0.250556     0.007504
PD5011   PD        0.639444    0.278333    0.250556     0.007504
PD5012   PD        0.639444    0.306111    0.222778     0.007504
PD5014   PD        0.667222    0.306111    0.250556     0.007504
PD5047   PD        0.195000    0.333889    0.250556     0.007504
PD5049   PD        0.222778    0.333889    0.222778     0.007504
PD5050   PD        0.222778    0.361667    0.250556     0.007504
PD5051   PD        0.250556    0.333889    0.250556     0.007504
AU5052   AU        0.250556    0.361667    0.222778     0.007504
PD5053   PD        0.278333    0.333889    0.222778     0.007504
PD5054   PD        0.278333    0.361667    0.250556     0.007504
PD5055   PD        0.306111    0.333889    0.250556     0.007504
PD5056   PD        0.306111    0.361667    0.222778     0.007504
AU5057   AU        0.333889    0.333889    0.222778     0.007504
AU5058   AU        0.333889    0.361667    0.250556     0.007504
AU5059   AU        0.361667    0.333889    0.250556     0.007504
AU5060   AU        0.361667    0.361667    0.222778     0.007504
AU5061   AU        0.389444    0.333889    0.222778     0.007504
AU5062   AU        0.389444    0.361667    0.250556     0.007504
AU5063   AU        0.417222    0.333889    0.250556     0.007504
AU5064   AU        0.417222    0.361667    0.222778     0.007504
AU5065   AU        0.445000    0.333889    0.222778     0.007504
AU5066   AU        0.445000    0.361667    0.250556     0.007504
AU5067   AU        0.472778    0.333889    0.250556     0.007504
AU5068   AU        0.472778    0.361667    0.222778     0.007504
AU5069   AU        0.500556    0.333889    0.222778     0.007504
AU5070   AU        0.500556    0.361667    0.250556     0.007504
AU5071   AU        0.528333    0.333889    0.250556     0.007504
PD5072   PD        0.528333    0.361667    0.222778     0.007504
AU5073   AU        0.556111    0.333889    0.222778     0.007504
AU5074   AU        0.556111    0.361667    0.250556     0.007504
PD5075   PD        0.583889    0.333889    0.250556     0.007504
AU5076   AU        0.583889    0.361667    0.222778     0.007504
PD5077   PD        0.611667    0.333889    0.222778     0.007504
PD5078   PD        0.611667    0.361667    0.250556     0.007504
PD5079   PD        0.639444    0.333889    0.250556     0.007504
PD5080   PD        0.639444    0.361667    0.222778     0.007504
PD5081   PD        0.667222    0.333889    0.222778     0.007504
AU5082   AU        0.667222    0.361667    0.250556     0.007504
PD5083   PD        0.695000    0.333889    0.250556     0.007504
PD5114   PD        0.167222    0.417222    0.250556     0.007504
PD5115   PD        0.195000    0.389444    0.250556     0.007504
PD5116   PD        0.195000    0.417222    0.222778     0.007504
PD5117   PD        0.222778    0.389444    0.222778     0.007504
PD5118   PD        0.222778    0.417222    0.250556     0.007504
AU5119   AU        0.250556    0.389444    0.250556     0.007504
AU5120   AU        0.250556    0.417222    0.222778     0.007504
PD5121   PD        0.278333    0.389444    0.222778     0.007504
PD5122   PD        0.278333    0.417222    0.250556     0.007504
AU5123   AU        0.306111    0.389444    0.250556     0.007504
AU5124   AU        0.306111    0.417222    0.222778     0.007504
PD5125   PD        0.333889    0.389444    0.222778     0.007504
PD5126   PD        0.333889    0.417222    0.250556     0.007504
AU5127   AU        0.361667    0.389444    0.250556     0.007504
PD5128   PD        0.361667    0.417222    0.222778     0.007504
PD5129   PD        0.389444    0.389444    0.222778     0.007504
AU5130   AU        0.389444    0.417222    0.250556     0.007504
AU5131   AU        0.417222    0.389444    0.250556     0.007504
AU5132   AU        0.417222    0.417222    0.222778     0.007504
PD5133   PD        0.445000    0.389444    0.222778     0.007504
AU5134   AU        0.445000    0.417222    0.250556     0.007504
AU5135   AU        0.472778    0.389444    0.250556     0.007504
AU5136   AU        0.472778    0.417222    0.222778     0.007504
AU5137   AU        0.500556    0.389444    0.222778     0.007504
AU5138   AU        0.500556    0.417222    0.250556     0.007504
AU5139   AU        0.528333    0.389444    0.250556     0.007504
PD5140   PD        0.528333    0.417222    0.222778     0.007504
PD5141   PD        0.556111    0.389444    0.222778     0.007504
PD5142   PD        0.556111    0.417222    0.250556     0.007504
PD5143   PD        0.583889    0.389444    0.250556     0.007504
PD5144   PD        0.583889    0.417222    0.222778     0.007504
PD5145   PD        0.611667    0.389444    0.222778     0.007504
AU5146   AU        0.611667    0.417222    0.250556     0.007504
PD5147   PD        0.639444    0.389444    0.250556     0.007504
PD5148   PD        0.639444    0.417222    0.222778     0.007504
PD5149   PD        0.667222    0.389444    0.222778     0.007504
PD5150   PD        0.667222    0.417222    0.250556     0.007504
PD5151   PD        0.695000    0.389444    0.250556     0.007504
PD5152   PD        0.695000    0.417222    0.222778     0.007504
PD5154   PD        0.722778    0.417222    0.250556     0.007504
PD5182   PD        0.167222    0.472778    0.250556     0.007504
PD5183   PD        0.195000    0.445000    0.250556     0.007504
PD5184   PD        0.195000    0.472778    0.222778     0.007504
PD5185   PD        0.222778    0.445000    0.222778     0.007504
PD5186   PD        0.222778    0.472778    0.250556     0.007504
AU5187   AU        0.250556    0.445000    0.250556     0.007504
PD5188   PD        0.250556    0.472778    0.222778     0.007504
AU5189   AU        0.278333    0.445000    0.222778     0.007504
AU5190   AU        0.278333    0.472778    0.250556     0.007504
AU5191   AU        0.306111    0.445000    0.250556     0.007504
PD5192   PD        0.306111    0.472778    0.222778     0.007504
AU5193   AU        0.333889    0.445000    0.222778     0.007504
PD5194   PD        0.333889    0.472778    0.250556     0.007504
AU5195   AU        0.361667    0.445000    0.250556     0.007504
AU5196   AU        0.361667    0.472778    0.222778     0.007504
AU5197   AU        0.389444    0.445000    0.222778     0.007504
AU5198   AU        0.389444    0.472778    0.250556     0.007504
AU5199   AU        0.417222    0.445000    0.250556     0.007504
AU5200   AU        0.417222    0.472778    0.222778     0.007504
AU5201   AU        0.445000    0.445000    0.222778     0.007504
AU5202   AU        0.445000    0.472778    0.250556     0.007504
AU5203   AU        0.472778    0.445000    0.250556     0.007504
AU5204   AU        0.472778    0.472778    0.222778     0.007504
AU5205   AU        0.500556    0.445000    0.222778     0.007504
AU5206   AU        0.500556    0.472778    0.250556     0.007504
AU5207   AU        0.528333    0.445000    0.250556     0.007504
PD5208   PD        0.528333    0.472778    0.222778     0.007504
AU5209   AU        0.556111    0.445000    0.222778     0.007504
AU5210   AU        0.556111    0.472778    0.250556     0.007504
AU5211   AU        0.583889    0.445000    0.250556     0.007504
PD5212   PD        0.583889    0.472778    0.222778     0.007504
AU5213   AU        0.611667    0.445000    0.222778     0.007504
PD5214   PD        0.611667    0.472778    0.250556     0.007504
PD5215   PD        0.639444    0.445000    0.250556     0.007504
AU5216   AU        0.639444    0.472778    0.222778     0.007504
AU5217   AU        0.667222    0.445000    0.222778     0.007504
AU5218   AU        0.667222    0.472778    0.250556     0.007504
AU5219   AU        0.695000    0.445000    0.250556     0.007504
PD5220   PD        0.695000    0.472778    0.222778     0.007504
PD5222   PD        0.722778    0.472778    0.250556     0.007504
PD5251   PD        0.195000    0.500556    0.250556     0.007504
PD5253   PD        0.222778    0.500556    0.222778     0.007504
PD5254   PD        0.222778    0.528333    0.250556     0.007504
PD5255   PD        0.250556    0.500556    0.250556     0.007504
PD5256   PD        0.250556    0.528333    0.222778     0.007504
PD5257   PD        0.278333    0.500556    0.222778     0.007504
AU5258   AU        0.278333    0.528333    0.250556     0.007504
PD5259   PD        0.306111    0.500556    0.250556     0.007504
PD5260   PD        0.306111    0.528333    0.222778     0.007504
PD5261   PD        0.333889    0.500556    0.222778     0.007504
AU5262   AU        0.333889    0.528333    0.250556     0.007504
AU5263   AU        0.361667    0.500556    0.250556     0.007504
AU5264   AU        0.361667    0.528333    0.222778     0.007504
PD5265   PD        0.389444    0.500556    0.222778     0.007504
AU5266   AU        0.389444    0.528333    0.250556     0.007504
AU5267   AU        0.417222    0.500556    0.250556     0.007504
AU5268   AU        0.417222    0.528333    0.222778     0.007504
AU5269   AU        0.445000    0.500556    0.222778     0.007504
AU5270   AU        0.445000    0.528333    0.250556     0.007504
AU5271   AU        0.472778    0.500556    0.250556     0.007504
AU5272   AU        0.472778    0.528333    0.222778     0.007504
PD5273   PD        0.500556    0.500556    0.222778     0.007504
AU5274   AU        0.500556    0.528333    0.250556     0.007504
AU5275   AU        0.528333    0.500556    0.250556     0.007504
AU5276   AU        0.528333    0.528333    0.222778     0.007504
AU5277   AU        0.556111    0.500556    0.222778     0.007504
AU5278   AU        0.556111    0.528333    0.250556     0.007504
AU5279   AU        0.583889    0.500556    0.250556     0.007504
AU5280   AU        0.583889    0.528333    0.222778     0.007504
PD5281   PD        0.611667    0.500556    0.222778     0.007504
PD5282   PD        0.611667    0.528333    0.250556     0.007504
PD5283   PD        0.639444    0.500556    0.250556     0.007504
PD5284   PD        0.639444    0.528333    0.222778     0.007504
PD5285   PD        0.667222    0.500556    0.222778     0.007504
PD5286   PD        0.667222    0.528333    0.250556     0.007504
PD5287   PD        0.695000    0.500556    0.250556     0.007504
PD5319   PD        0.195000    0.556111    0.250556     0.007504
PD5321   PD        0.222778    0.556111    0.222778     0.007504
PD5322   PD        0.222778    0.583889    0.250556     0.007504
PD5323   PD        0.250556    0.556111    0.250556     0.007504
PD5324   PD        0.250556    0.583889    0.222778     0.007504
PD5325   PD        0.278333    0.556111    0.222778     0.007504
PD5326   PD        0.278333    0.583889    0.250556     0.007504
PD5327   PD        0.306111    0.556111    0.250556     0.007504
PD5328   PD        0.306111    0.583889    0.222778     0.007504
AU5329   AU        0.333889    0.556111    0.222778     0.007504
PD5330   PD        0.333889    0.583889    0.250556     0.007504
PD5331   PD        0.361667    0.556111    0.250556     0.007504
AU5332   AU        0.361667    0.583889    0.222778     0.007504
PD5333   PD        0.389444    0.556111    0.222778     0.007504
AU5334   AU        0.389444    0.583889    0.250556     0.007504
AU5335   AU        0.417222    0.556111    0.250556     0.007504
AU5336   AU        0.417222    0.583889    0.222778     0.007504
AU5337   AU        0.445000    0.556111    0.222778     0.007504
AU5338   AU        0.445000    0.583889    0.250556     0.007504
AU5339   AU        0.472778    0.556111    0.250556     0.007504
AU5340   AU        0.472778    0.583889    0.222778     0.007504
PD5341   PD        0.500556    0.556111    0.222778     0.007504
AU5342   AU        0.500556    0.583889    0.250556     0.007504
AU5343   AU        0.528333    0.556111    0.250556     0.007504
PD5344   PD        0.528333    0.583889    0.222778     0.007504
AU5345   AU        0.556111    0.556111    0.222778     0.007504
AU5346   AU        0.556111    0.583889    0.250556     0.007504
AU5347   AU        0.583889    0.556111    0.250556     0.007504
PD5348   PD        0.583889    0.583889    0.222778     0.007504
PD5349   PD        0.611667    0.556111    0.222778     0.007504
PD5350   PD        0.611667    0.583889    0.250556     0.007504
PD5351   PD        0.639444    0.556111    0.250556     0.007504
PD5352   PD        0.639444    0.583889    0.222778     0.007504
PD5353   PD        0.667222    0.556111    0.222778     0.007504
PD5354   PD        0.667222    0.583889    0.250556     0.007504
PD5355   PD        0.695000    0.556111    0.250556     0.007504
PD5391   PD        0.250556    0.611667    0.250556     0.007504
PD5393   PD        0.278333    0.611667    0.222778     0.007504
PD5394   PD        0.278333    0.639444    0.250556     0.007504
PD5395   PD        0.306111    0.611667    0.250556     0.007504
PD5396   PD        0.306111    0.639444    0.222778     0.007504
PD5397   PD        0.333889    0.611667    0.222778     0.007504
PD5398   PD        0.333889    0.639444    0.250556     0.007504
PD5399   PD        0.361667    0.611667    0.250556     0.007504
PD5400   PD        0.361667    0.639444    0.222778     0.007504
PD5401   PD        0.389444    0.611667    0.222778     0.007504
PD5402   PD        0.389444    0.639444    0.250556     0.007504
PD5403   PD        0.417222    0.611667    0.250556     0.007504
AU5404   AU        0.417222    0.639444    0.222778     0.007504
PD5405   PD        0.445000    0.611667    0.222778     0.007504
PD5406   PD        0.445000    0.639444    0.250556     0.007504
AU5407   AU        0.472778    0.611667    0.250556     0.007504
AU5408   AU        0.472778    0.639444    0.222778     0.007504
PD5409   PD        0.500556    0.611667    0.222778     0.007504
AU5410   AU        0.500556    0.639444    0.250556     0.007504
AU5411   AU        0.528333    0.611667    0.250556     0.007504
PD5412   PD        0.528333    0.639444    0.222778     0.007504
PD5413   PD        0.556111    0.611667    0.222778     0.007504
PD5414   PD        0.556111    0.639444    0.250556     0.007504
PD5415   PD        0.583889    0.611667    0.250556     0.007504
PD5416   PD        0.583889    0.639444    0.222778     0.007504
PD5417   PD        0.611667    0.611667    0.222778     0.007504
PD5418   PD        0.611667    0.639444    0.250556     0.007504
PD5419   PD        0.639444    0.611667    0.250556     0.007504
PD5463   PD        0.306111    0.667222    0.250556     0.007504
PD5465   PD        0.333889    0.667222    0.222778     0.007504
PD5466   PD        0.333889    0.695000    0.250556     0.007504
PD5467   PD        0.361667    0.667222    0.250556     0.007504
PD5469   PD        0.389444    0.667222    0.222778     0.007504
PD5470   PD        0.389444    0.695000    0.250556     0.007504
PD5471   PD        0.417222    0.667222    0.250556     0.007504
PD5472   PD        0.417222    0.695000    0.222778     0.007504
PD5473   PD        0.445000    0.667222    0.222778     0.007504
PD5474   PD        0.445000    0.695000    0.250556     0.007504
PD5475   PD        0.472778    0.667222    0.250556     0.007504
PD5476   PD        0.472778    0.695000    0.222778     0.007504
PD5477   PD        0.500556    0.667222    0.222778     0.007504
PD5478   PD        0.500556    0.695000    0.250556     0.007504
PD5479   PD        0.528333    0.667222    0.250556     0.007504
PD5481   PD        0.556111    0.667222    0.222778     0.007504
PD5482   PD        0.556111    0.695000    0.250556     0.007504
PD5483   PD        0.583889    0.667222    0.250556     0.007504
PD5539   PD        0.417222    0.722778    0.250556     0.007504
PD5543   PD        0.472778    0.722778    0.250556     0.007504
PD5946   PD        0.389444    0.139444    0.306111     0.007504
PD5950   PD        0.445000    0.139444    0.306111     0.007504
PD5954   PD        0.500556    0.139444    0.306111     0.007504
PD6006   PD        0.278333    0.195000    0.306111     0.007504
PD6007   PD        0.306111    0.167222    0.306111     0.007504
PD6008   PD        0.306111    0.195000    0.278333     0.007504
AU6010   AU        0.333889    0.195000    0.306111     0.007504
PD6011   PD        0.361667    0.167222    0.306111     0.007504
PD6012   PD        0.361667    0.195000    0.278333     0.007504
PD6013   PD        0.389444    0.167222    0.278333     0.007504
AU6014   AU        0.389444    0.195000    0.306111     0.007504
PD6015   PD        0.417222    0.167222    0.306111     0.007504
PD6016   PD        0.417222    0.195000    0.278333     0.007504
PD6017   PD        0.445000    0.167222    0.278333     0.007504
PD6018   PD        0.445000    0.195000    0.306111     0.007504
PD6019   PD        0.472778    0.167222    0.306111     0.007504
PD6020   PD        0.472778    0.195000    0.278333     0.007504
PD6021   PD        0.500556    0.167222    0.278333     0.007504
PD6022   PD        0.500556    0.195000    0.306111     0.007504
PD6023   PD        0.528333    0.167222    0.306111     0.007504
PD6024   PD        0.528333    0.195000    0.278333     0.007504
PD6026   PD        0.556111    0.195000    0.306111     0.007504
PD6027   PD        0.583889    0.167222    0.306111     0.007504
PD6028   PD        0.583889    0.195000    0.278333     0.007504
PD6030   PD        0.611667    0.195000    0.306111     0.007504
PD6070   PD        0.222778    0.250556    0.306111     0.007504
PD6071   PD        0.250556    0.222778    0.306111     0.007504
PD6072   PD        0.250556    0.250556    0.278333     0.007504
PD6073   PD        0.278333    0.222778    0.278333     0.007504
PD6074   PD        0.278333    0.250556    0.306111     0.007504
PD6075   PD        0.306111    0.222778    0.306111     0.007504
AU6076   AU        0.306111    0.250556    0.278333     0.007504
AU6077   AU        0.333889    0.222778    0.278333     0.007504
PD6078   PD        0.333889    0.250556    0.306111     0.007504
AU6079   AU        0.361667    0.222778    0.306111     0.007504
AU6080   AU        0.361667    0.250556    0.278333     0.007504
PD6081   PD        0.389444    0.222778    0.278333     0.007504
AU6082   AU        0.389444    0.250556    0.306111     0.007504
AU6083   AU        0.417222    0.222778    0.306111     0.007504
AU6084   AU        0.417222    0.250556    0.278333     0.007504
AU6085   AU        0.445000    0.222778    0.278333     0.007504
PD6086   PD        0.445000    0.250556    0.306111     0.007504
AU6087   AU        0.472778    0.222778    0.306111     0.007504
PD6088   PD        0.472778    0.250556    0.278333     0.007504
PD6089   PD        0.500556    0.222778    0.278333     0.007504
AU6090   AU        0.500556    0.250556    0.306111     0.007504
AU6091   AU        0.528333    0.222778    0.306111     0.007504
PD6092   PD        0.528333    0.250556    0.278333     0.007504
PD6093   PD        0.556111    0.222778    0.278333     0.007504
PD6094   PD        0.556111    0.250556    0.306111     0.007504
PD6095   PD        0.583889    0.222778    0.306111     0.007504
PD6096   PD        0.583889    0.250556    0.278333     0.007504
PD6097   PD        0.611667    0.222778    0.278333     0.007504
AU6098   AU        0.611667    0.250556    0.306111     0.007504
PD6099   PD        0.639444    0.222778    0.306111     0.007504
PD6100   PD        0.639444    0.250556    0.278333     0.007504
PD6102   PD        0.667222    0.250556    0.306111     0.007504
PD6134   PD        0.167222    0.306111    0.306111     0.007504
AU6135   AU        0.195000    0.278333    0.306111     0.007504
PD6136   PD        0.195000    0.306111    0.278333     0.007504
PD6137   PD        0.222778    0.278333    0.278333     0.007504
PD6138   PD        0.222778    0.306111    0.306111     0.007504
PD6139   PD        0.250556    0.278333    0.306111     0.007504
PD6140   PD        0.250556    0.306111    0.278333     0.007504
AU6141   AU        0.278333    0.278333    0.278333     0.007504
AU6142   AU        0.278333    0.306111    0.306111     0.007504
PD6143   PD        0.306111    0.278333    0.306111     0.007504
AU6144   AU        0.306111    0.306111    0.278333     0.007504
AU6145   AU        0.333889    0.278333    0.278333     0.007504
AU6146   AU        0.333889    0.306111    0.306111     0.007504
AU6147   AU        0.361667    0.278333    0.306111     0.007504
AU6148   AU        0.361667    0.306111    0.278333     0.007504
AU6149   AU        0.389444    0.278333    0.278333     0.007504
AU6150   AU        0.389444    0.306111    0.306111     0.007504
AU6151   AU        0.417222    0.278333    0.306111     0.007504
AU6152   AU        0.417222    0.306111    0.278333     0.007504
AU6153   AU        0.445000    0.278333    0.278333     0.007504
AU6154   AU        0.445000    0.306111    0.306111     0.007504
AU6155   AU        0.472778    0.278333    0.306111     0.007504
PD6156   PD        0.472778    0.306111    0.278333     0.007504
PD6157   PD        0.500556    0.278333    0.278333     0.007504
AU6158   AU        0.500556    0.306111    0.306111     0.007504
AU6159   AU        0.528333    0.278333    0.306111     0.007504
AU6160   AU        0.528333    0.306111    0.278333     0.007504
AU6161   AU        0.556111    0.278333    0.278333     0.007504
AU6162   AU        0.556111    0.306111    0.306111     0.007504
AU6163   AU        0.583889    0.278333    0.306111     0.007504
AU6164   AU        0.583889    0.306111    0.278333     0.007504
PD6165   PD        0.611667    0.278333    0.278333     0.007504
AU6166   AU        0.611667    0.306111    0.306111     0.007504
PD6167   PD        0.639444    0.278333    0.306111     0.007504
PD6168   PD        0.639444    0.306111    0.278333     0.007504
PD6169   PD        0.667222    0.278333    0.278333     0.007504
PD6170   PD        0.667222    0.306111    0.306111     0.007504
PD6171   PD        0.695000    0.278333    0.306111     0.007504
PD6172   PD        0.695000    0.306111    0.278333     0.007504
PD6174   PD        0.722778    0.306111    0.306111     0.007504
PD6202   PD        0.167222    0.361667    0.306111     0.007504
PD6203   PD        0.195000    0.333889    0.306111     0.007504
PD6204   PD        0.195000    0.361667    0.278333     0.007504
PD6205   PD        0.222778    0.333889    0.278333     0.007504
PD6206   PD        0.222778    0.361667    0.306111     0.007504
AU6207   AU        0.250556    0.333889    0.306111     0.007504
PD6208   PD        0.250556    0.361667    0.278333     0.007504
AU6209   AU        0.278333    0.333889    0.278333     0.007504
AU6210   AU        0.278333    0.361667    0.306111     0.007504
AU6211   AU        0.306111    0.333889    0.306111     0.007504
AU6212   AU        0.306111    0.361667    0.278333     0.007504
AU6213   AU        0.333889    0.333889    0.278333     0.007504
AU6214   AU        0.333889    0.361667    0.306111     0.007504
AU6215   AU        0.361667    0.333889    0.306111     0.007504
AU6216   AU        0.361667    0.361667    0.278333     0.007504
AU6217   AU        0.389444    0.333889    0.278333     0.007504
AU6218   AU        0.389444    0.361667    0.306111     0.007504
AU6219   AU        0.417222    0.333889    0.306111     0.007504
AU6220   AU        0.417222    0.361667    0.278333     0.007504
AU6221   AU        0.445000    0.333889    0.278333     0.007504
AU6222   AU        0.445000    0.361667    0.306111     0.007504
AU6223   AU        0.472778    0.333889    0.306111     0.007504
AU6224   AU        0.472778    0.361667    0.278333     0.007504
AU6225   AU        0.500556    0.333889    0.278333     0.007504
AU6226   AU        0.500556    0.361667    0.306111     0.007504
AU6227   AU        0.528333    0.333889    0.306111     0.007504
AU6228   AU        0.528333    0.361667    0.278333     0.007504
AU6229   AU        0.556111    0.333889    0.278333     0.007504
AU6230   AU        0.556111    0.361667    0.306111     0.007504
AU6231   AU        0.583889    0.333889    0.306111     0.007504
AU6232   AU        0.583889    0.361667    0.278333     0.007504
AU6233   AU        0.611667    0.333889    0.278333     0.007504
AU6234   AU        0.611667    0.361667    0.306111     0.007504
AU6235   AU        0.639444    0.333889    0.306111     0.007504
PD6236   PD        0.639444    0.361667    0.278333     0.007504
PD6237   PD        0.667222    0.333889    0.278333     0.007504
PD6238   PD        0.667222    0.361667    0.306111     0.007504
PD6239   PD        0.695000    0.333889    0.306111     0.007504
AU6240   AU        0.695000    0.361667    0.278333     0.007504
AU6242   AU        0.722778    0.361667    0.306111     0.007504
PD6267   PD        0.139444    0.389444    0.306111     0.007504
AU6269   AU        0.167222    0.389444    0.278333     0.007504
PD6270   PD        0.167222    0.417222    0.306111     0.007504
PD6271   PD        0.195000    0.389444    0.306111     0.007504
PD6272   PD        0.195000    0.417222    0.278333     0.007504
PD6273   PD        0.222778    0.389444    0.278333     0.007504
AU6274   AU        0.222778    0.417222    0.306111     0.007504
AU6275   AU        0.250556    0.389444    0.306111     0.007504
AU6276   AU        0.250556    0.417222    0.278333     0.007504
PD6277   PD        0.278333    0.389444    0.278333     0.007504
AU6278   AU        0.278333    0.417222    0.306111     0.007504
AU6279   AU        0.306111    0.389444    0.306111     0.007504
AU6280   AU        0.306111    0.417222    0.278333     0.007504
AU6281   AU        0.333889    0.389444    0.278333     0.007504
AU6282   AU        0.333889    0.417222    0.306111     0.007504
AU6283   AU        0.361667    0.389444    0.306111     0.007504
AU6284   AU        0.361667    0.417222    0.278333     0.007504
AU6285   AU        0.389444    0.389444    0.278333     0.007504
AU6286   AU        0.389444    0.417222    0.306111     0.007504
AU6287   AU        0.417222    0.389444    0.306111     0.007504
AU6288   AU        0.417222    0.417222    0.278333     0.007504
AU6289   AU        0.445000    0.389444    0.278333     0.007504
AU6290   AU        0.445000    0.417222    0.306111     0.007504
AU6291   AU        0.472778    0.389444    0.306111     0.007504
AU6292   AU        0.472778    0.417222    0.278333     0.007504
AU6293   AU        0.500556    0.389444    0.278333     0.007504
AU6294   AU        0.500556    0.417222    0.306111     0.007504
AU6295   AU        0.528333    0.389444    0.306111     0.007504
AU6296   AU        0.528333    0.417222    0.278333     0.007504
AU6297   AU        0.556111    0.389444    0.278333     0.007504
AU6298   AU        0.556111    0.417222    0.306111     0.007504
AU6299   AU        0.583889    0.389444    0.306111     0.007504
AU6300   AU        0.583889    0.417222    0.278333     0.007504
AU6301   AU        0.611667    0.389444    0.278333     0.007504
AU6302   AU        0.611667    0.417222    0.306111     0.007504
AU6303   AU        0.639444    0.389444    0.306111     0.007504
PD6304   PD        0.639444    0.417222    0.278333     0.007504
AU6305   AU        0.667222    0.389444    0.278333     0.007504
PD6306   PD        0.667222    0.417222    0.306111     0.007504
PD6307   PD        0.695000    0.389444    0.306111     0.007504
PD6308   PD        0.695000    0.417222    0.278333     0.007504
PD6309   PD        0.722778    0.389444    0.278333     0.007504
PD6310   PD        0.722778    0.417222    0.306111     0.007504
PD6311   PD        0.750556    0.389444    0.306111     0.007504
PD6335   PD        0.139444    0.445000    0.306111     0.007504
PD6337   PD        0.167222    0.445000    0.278333     0.007504
PD6338   PD        0.167222    0.472778    0.306111     0.007504
AU6339   AU        0.195000    0.445000    0.306111     0.007504
PD6340   PD        0.195000    0.472778    0.278333     0.007504
AU6341   AU        0.222778    0.445000    0.278333     0.007504
AU6342   AU        0.222778    0.472778    0.306111     0.007504
AU6343   AU        0.250556    0.445000    0.306111     0.007504
PD6344   PD        0.250556    0.472778    0.278333     0.007504
AU6345   AU        0.278333    0.445000    0.278333     0.007504
AU6346   AU        0.278333    0.472778    0.306111     0.007504
AU6347   AU        0.306111    0.445000    0.306111     0.007504
AU6348   AU        0.306111    0.472778    0.278333     0.007504
AU6349   AU        0.333889    0.445000    0.278333     0.007504
AU6350   AU        0.333889    0.472778    0.306111     0.007504
AU6351   AU        0.361667    0.445000    0.306111     0.007504
AU6352   AU        0.361667    0.472778    0.278333     0.007504
AU6353   AU        0.389444    0.445000    0.278333     0.007504
AU6354   AU        0.389444    0.472778    0.306111     0.007504
AU6355   AU        0.417222    0.445000    0.306111     0.007504
AU6356   AU        0.417222    0.472778    0.278333     0.007504
AU6357   AU        0.445000    0.445000    0.278333     0.007504
AU6358   AU        0.445000    0.472778    0.306111     0.007504
AU6359   AU        0.472778    0.445000    0.306111     0.007504
AU6360   AU        0.472778    0.472778    0.278333     0.007504
AU6361   AU        0.500556    0.445000    0.278333     0.007504
AU6362   AU        0.500556    0.472778    0.306111     0.007504
AU6363   AU        0.528333    0.445000    0.306111     0.007504
AU6364   AU        0.528333    0.472778    0.278333     0.007504
PD6365   PD        0.556111    0.445000    0.278333     0.007504
AU6366   AU        0.556111    0.472778    0.306111     0.007504
AU6367   AU        0.583889    0.445000    0.306111     0.007504
AU6368   AU        0.583889    0.472778    0.278333     0.007504
AU6369   AU        0.611667    0.445000    0.278333     0.007504
PD6370   PD        0.611667    0.472778    0.306111     0.007504
AU6371   AU        0.639444    0.445000    0.306111     0.007504
AU6372   AU        0.639444    0.472778    0.278333     0.007504
PD6373   PD        0.667222    0.445000    0.278333     0.007504
AU6374   AU        0.667222    0.472778    0.306111     0.007504
PD6375   PD        0.695000    0.445000    0.306111     0.007504
AU6376   AU        0.695000    0.472778    0.278333     0.007504
PD6377   PD        0.722778    0.445000    0.278333     0.007504
PD6378   PD        0.722778    0.472778    0.306111     0.007504
AU6379   AU        0.750556    0.445000    0.306111     0.007504
PD6403   PD        0.139444    0.500556    0.306111     0.007504
PD6405   PD        0.167222    0.500556    0.278333     0.007504
PD6406   PD        0.167222    0.528333    0.306111     0.007504
PD6407   PD        0.195000    0.500556    0.306111     0.007504
PD6408   PD        0.195000    0.528333    0.278333     0.007504
PD6409   PD        0.222778    0.500556    0.278333     0.007504
PD6410   PD        0.222778    0.528333    0.306111     0.007504
PD6411   PD        0.250556    0.500556    0.306111     0.007504
PD6412   PD        0.250556    0.528333    0.278333     0.007504
AU6413   AU        0.278333    0.500556    0.278333     0.007504
PD6414   PD        0.278333    0.528333    0.306111     0.007504
AU6415   AU        0.306111    0.500556    0.306111     0.007504
AU6416   AU        0.306111    0.528333    0.278333     0.007504
AU6417   AU        0.333889    0.500556    0.278333     0.007504
AU6418   AU        0.333889    0.528333    0.306111     0.007504
AU6419   AU        0.361667    0.500556    0.306111     0.007504
AU6420   AU        0.361667    0.528333    0.278333     0.007504
AU6421   AU        0.389444    0.500556    0.278333     0.007504
AU6422   AU        0.389444    0.528333    0.306111     0.007504
AU6423   AU        0.417222    0.500556    0.306111     0.007504
AU6424   AU        0.417222    0.528333    0.278333     0.007504
AU6425   AU        0.445000    0.500556    0.278333     0.007504
AU6426   AU        0.445000    0.528333    0.306111     0.007504
AU6427   AU        0.472778    0.500556    0.306111     0.007504
AU6428   AU        0.472778    0.528333    0.278333     0.007504
AU6429   AU        0.500556    0.500556    0.278333     0.007504
AU6430   AU        0.500556    0.528333    0.306111     0.007504
AU6431   AU        0.528333    0.500556    0.306111     0.007504
AU6432   AU        0.528333    0.528333    0.278333     0.007504
AU6433   AU        0.556111    0.500556    0.278333     0.007504
AU6434   AU        0.556111    0.528333    0.306111     0.007504
AU6435   AU        0.583889    0.500556    0.306111     0.007504
AU6436   AU        0.583889    0.528333    0.278333     0.007504
AU6437   AU        0.611667    0.500556    0.278333     0.007504
AU6438   AU        0.611667    0.528333    0.306111     0.007504
AU6439   AU        0.639444    0.500556    0.306111     0.007504
PD6440   PD        0.639444    0.528333    0.278333     0.007504
PD6441   PD        0.667222    0.500556    0.278333     0.007504
PD6442   PD        0.667222    0.528333    0.306111     0.007504
AU6443   AU        0.695000    0.500556    0.306111     0.007504
PD6444   PD        0.695000    0.528333    0.278333     0.007504
PD6445   PD        0.722778    0.500556    0.278333     0.007504
PD6446   PD        0.722778    0.528333    0.306111     0.007504
PD6447   PD        0.750556    0.500556    0.306111     0.007504
PD6474   PD        0.167222    0.583889    0.306111     0.007504
PD6475   PD        0.195000    0.556111    0.306111     0.007504
PD6476   PD        0.195000    0.583889    0.278333     0.007504
PD6477   PD        0.222778    0.556111    0.278333     0.007504
PD6478   PD        0.222778    0.583889    0.306111     0.007504
PD6479   PD        0.250556    0.556111    0.306111     0.007504
PD6480   PD        0.250556    0.583889    0.278333     0.007504
PD6481   PD        0.278333    0.556111    0.278333     0.007504
AU6482   AU        0.278333    0.583889    0.306111     0.007504
AU6483   AU        0.306111    0.556111    0.306111     0.007504
AU6484   AU        0.306111    0.583889    0.278333     0.007504
AU6485   AU        0.333889    0.556111    0.278333     0.007504
AU6486   AU        0.333889    0.583889    0.306111     0.007504
AU6487   AU        0.361667    0.556111    0.306111     0.007504
AU6488   AU        0.361667    0.583889    0.278333     0.007504
AU6489   AU        0.389444    0.556111    0.278333     0.007504
AU6490   AU        0.389444    0.583889    0.306111     0.007504
AU6491   AU        0.417222    0.556111    0.306111     0.007504
AU6492   AU        0.417222    0.583889    0.278333     0.007504
AU6493   AU        0.445000    0.556111    0.278333     0.007504
AU6494   AU        0.445000    0.583889    0.306111     0.007504
AU6495   AU        0.472778    0.556111    0.306111     0.007504
AU6496   AU        0.472778    0.583889    0.278333     0.007504
AU6497   AU        0.500556    0.556111    0.278333     0.007504
AU6498   AU        0.500556    0.583889    0.306111     0.007504
AU6499   AU        0.528333    0.556111    0.306111     0.007504
AU6500   AU        0.528333    0.583889    0.278333     0.007504
PD6501   PD        0.556111    0.556111    0.278333     0.007504
AU6502   AU        0.556111    0.583889    0.306111     0.007504
AU6503   AU        0.583889    0.556111    0.306111     0.007504
AU6504   AU        0.583889    0.583889    0.278333     0.007504
AU6505   AU        0.611667    0.556111    0.278333     0.007504
AU6506   AU        0.611667    0.583889    0.306111     0.007504
PD6507   PD        0.639444    0.556111    0.306111     0.007504
PD6508   PD        0.639444    0.583889    0.278333     0.007504
PD6509   PD        0.667222    0.556111    0.278333     0.007504
PD6510   PD        0.667222    0.583889    0.306111     0.007504
PD6511   PD        0.695000    0.556111    0.306111     0.007504
PD6512   PD        0.695000    0.583889    0.278333     0.007504
PD6514   PD        0.722778    0.583889    0.306111     0.007504
PD6543   PD        0.195000    0.611667    0.306111     0.007504
PD6545   PD        0.222778    0.611667    0.278333     0.007504
PD6546   PD        0.222778    0.639444    0.306111     0.007504
AU6547   AU        0.250556    0.611667    0.306111     0.007504
PD6548   PD        0.250556    0.639444    0.278333     0.007504
AU6549   AU        0.278333    0.611667    0.278333     0.007504
PD6550   PD        0.278333    0.639444    0.306111     0.007504
AU6551   AU        0.306111    0.611667    0.306111     0.007504
AU6552   AU        0.306111    0.639444    0.278333     0.007504
AU6553   AU        0.333889    0.611667    0.278333     0.007504
AU6554   AU        0.333889    0.639444    0.306111     0.007504
AU6555   AU        0.361667    0.611667    0.306111     0.007504
AU6556   AU        0.361667    0.639444    0.278333     0.007504
AU6557   AU        0.389444    0.611667    0.278333     0.007504
AU6558   AU        0.389444    0.639444    0.306111     0.007504
AU6559   AU        0.417222    0.611667    0.306111     0.007504
AU6560   AU        0.417222    0.639444    0.278333     0.007504
AU6561   AU        0.445000    0.611667    0.278333     0.007504
AU6562   AU        0.445000    0.639444    0.306111     0.007504
AU6563   AU        0.472778    0.611667    0.306111     0.007504
PD6564   PD        0.472778    0.639444    0.278333     0.007504
AU6565   AU        0.500556    0.611667    0.278333     0.007504
PD6566   PD        0.500556    0.639444    0.306111     0.007504
AU6567   AU        0.528333    0.611667    0.306111     0.007504
PD6568   PD        0.528333    0.639444    0.278333     0.007504
AU6569   AU        0.556111    0.611667    0.278333     0.007504
PD6570   PD        0.556111    0.639444    0.306111     0.007504
AU6571   AU        0.583889    0.611667    0.306111     0.007504
PD6572   PD        0.583889    0.639444    0.278333     0.007504
PD6573   PD        0.611667    0.611667    0.278333     0.007504
PD6574   PD        0.611667    0.639444    0.306111     0.007504
PD6575   PD        0.639444    0.611667    0.306111     0.007504
PD6576   PD        0.639444    0.639444    0.278333     0.007504
PD6577   PD        0.667222    0.611667    0.278333     0.007504
PD6578   PD        0.667222    0.639444    0.306111     0.007504
PD6579   PD        0.695000    0.611667    0.306111     0.007504
PD6615   PD        0.250556    0.667222    0.306111     0.007504
PD6617   PD        0.278333    0.667222    0.278333     0.007504
AU6618   AU        0.278333    0.695000    0.306111     0.007504
PD6619   PD        0.306111    0.667222    0.306111     0.007504
PD6620   PD        0.306111    0.695000    0.278333     0.007504
AU6621   AU        0.333889    0.667222    0.278333     0.007504
PD6622   PD        0.333889    0.695000    0.306111     0.007504
AU6623   AU        0.361667    0.667222    0.306111     0.007504
PD6624   PD        0.361667    0.695000    0.278333     0.007504
PD6625   PD        0.389444    0.667222    0.278333     0.007504
PD6626   PD        0.389444    0.695000    0.306111     0.007504
AU6627   AU        0.417222    0.667222    0.306111     0.007504
AU6628   AU        0.417222    0.695000    0.278333     0.007504
PD6629   PD        0.445000    0.667222    0.278333     0.007504
PD6630   PD        0.445000    0.695000    0.306111     0.007504
AU6631   AU        0.472778    0.667222    0.306111     0.007504
PD6632   PD        0.472778    0.695000    0.278333     0.007504
PD6633   PD        0.500556    0.667222    0.278333     0.007504
PD6634   PD        0.500556    0.695000    0.306111     0.007504
PD6635   PD        0.528333    0.667222    0.306111     0.007504
PD6636   PD        0.528333    0.695000    0.278333     0.007504
PD6637   PD        0.556111    0.667222    0.278333     0.007504
PD6638   PD        0.556111    0.695000    0.306111     0.007504
PD6639   PD        0.583889    0.667222    0.306111     0.007504
PD6640   PD        0.583889    0.695000    0.278333     0.007504
PD6641   PD        0.611667    0.667222    0.278333     0.007504
PD6642   PD        0.611667    0.695000    0.306111     0.007504
PD6643   PD        0.639444    0.667222    0.306111     0.007504
AU6687   AU        0.306111    0.722778    0.306111     0.007504
PD6691   PD        0.361667    0.722778    0.306111     0.007504
PD6693   PD        0.389444    0.722778    0.278333     0.007504
PD6694   PD        0.389444    0.750556    0.306111     0.007504
PD6695   PD        0.417222    0.722778    0.306111     0.007504
PD6697   PD        0.445000    0.722778    0.278333     0.007504
PD6698   PD        0.445000    0.750556    0.306111     0.007504
PD6699   PD        0.472778    0.722778    0.306111     0.007504
PD6701   PD        0.500556    0.722778    0.278333     0.007504
PD6702   PD        0.500556    0.750556    0.306111     0.007504
PD6703   PD        0.528333    0.722778    0.306111     0.007504
PD6707   PD        0.583889    0.722778    0.306111     0.007504
PD7098   PD        0.333889    0.139444    0.361667     0.007504
PD7100   PD        0.361667    0.139444    0.333889     0.007504
PD7102   PD        0.389444    0.139444    0.361667     0.007504
PD7104   PD        0.417222    0.139444    0.333889     0.007504
AU7106   AU        0.445000    0.139444    0.361667     0.007504
PD7108   PD        0.472778    0.139444    0.333889     0.007504
AU7110   AU        0.500556    0.139444    0.361667     0.007504
PD7112   PD        0.528333    0.139444    0.333889     0.007504
PD7114   PD        0.556111    0.139444    0.361667     0.007504
PD7160   PD        0.250556    0.195000    0.333889     0.007504
PD7162   PD        0.278333    0.195000    0.361667     0.007504
PD7163   PD        0.306111    0.167222    0.361667     0.007504
PD7164   PD        0.306111    0.195000    0.333889     0.007504
PD7165   PD        0.333889    0.167222    0.333889     0.007504
PD7166   PD        0.333889    0.195000    0.361667     0.007504
PD7167   PD        0.361667    0.167222    0.361667     0.007504
PD7168   PD        0.361667    0.195000    0.333889     0.007504
PD7169   PD        0.389444    0.167222    0.333889     0.007504
PD7170   PD        0.389444    0.195000    0.361667     0.007504
PD7171   PD        0.417222    0.167222    0.361667     0.007504
PD7172   PD        0.417222    0.195000    0.333889     0.007504
PD7173   PD        0.445000    0.167222    0.333889     0.007504
PD7174   PD        0.445000    0.195000    0.361667     0.007504
PD7175   PD        0.472778    0.167222    0.361667     0.007504
PD7176   PD        0.472778    0.195000    0.333889     0.007504
PD7177   PD        0.500556    0.167222    0.333889     0.007504
AU7178   AU        0.500556    0.195000    0.361667     0.007504
PD7179   PD        0.528333    0.167222    0.361667     0.007504
PD7180   PD        0.528333    0.195000    0.333889     0.007504
PD7181   PD        0.556111    0.167222    0.333889     0.007504
PD7182   PD        0.556111    0.195000    0.361667     0.007504
PD7183   PD        0.583889    0.167222    0.361667     0.007504
PD7184   PD        0.583889    0.195000    0.333889     0.007504
PD7186   PD        0.611667    0.195000    0.361667     0.007504
PD7188   PD        0.639444    0.195000    0.333889     0.007504
PD7224   PD        0.195000    0.250556    0.333889     0.007504
PD7225   PD        0.222778    0.222778    0.333889     0.007504
PD7226   PD        0.222778    0.250556    0.361667     0.007504
PD7227   PD        0.250556    0.222778    0.361667     0.007504
PD7228   PD        0.250556    0.250556    0.333889     0.007504
PD7229   PD        0.278333    0.222778    0.333889     0.007504
AU7230   AU        0.278333    0.250556    0.361667     0.007504
AU7231   AU        0.306111    0.222778    0.361667     0.007504
AU7232   AU        0.306111    0.250556    0.333889     0.007504
PD7233   PD        0.333889    0.222778    0.333889     0.007504
AU7234   AU        0.333889    0.250556    0.361667     0.007504
PD7235   PD        0.361667    0.222778    0.361667     0.007504
AU7236   AU        0.361667    0.250556    0.333889     0.007504
PD7237   PD        0.389444    0.222778    0.333889     0.007504
AU7238   AU        0.389444    0.250556    0.361667     0.007504
AU7239   AU        0.417222    0.222778    0.361667     0.007504
AU7240   AU        0.417222    0.250556    0.333889     0.007504
AU7241   AU        0.445000    0.222778    0.333889     0.007504
PD7242   PD        0.445000    0.250556    0.361667     0.007504
PD7243   PD        0.472778    0.222778    0.361667     0.007504
AU7244   AU        0.472778    0.250556    0.333889     0.007504
PD7245   PD        0.500556    0.222778    0.333889     0.007504
AU7246   AU        0.500556    0.250556    0.361667     0.007504
PD7247   PD        0.528333    0.222778    0.361667     0.007504
AU7248   AU        0.528333    0.250556    0.333889     0.007504
PD7249   PD        0.556111    0.222778    0.333889     0.007504
AU7250   AU        0.556111    0.250556    0.361667     0.007504
AU7251   AU        0.583889    0.222778    0.361667     0.007504
AU7252   AU        0.583889    0.250556    0.333889     0.007504
PD7253   PD        0.611667    0.222778    0.333889     0.007504
AU7254   AU        0.611667    0.250556    0.361667     0.007504
PD7255   PD        0.639444    0.222778    0.361667     0.007504
AU7256   AU        0.639444    0.250556    0.333889     0.007504
AU7257   AU        0.667222    0.222778    0.333889     0.007504
PD7258   PD        0.667222    0.250556    0.361667     0.007504
PD7260   PD        0.695000    0.250556    0.333889     0.007504
PD7290   PD        0.167222    0.306111    0.361667     0.007504
PD7291   PD        0.195000    0.278333    0.361667     0.007504
PD7292   PD        0.195000    0.306111    0.333889     0.007504
PD7293   PD        0.222778    0.278333    0.333889     0.007504
PD7294   PD        0.222778    0.306111    0.361667     0.007504
PD7295   PD        0.250556    0.278333    0.361667     0.007504
AU7296   AU        0.250556    0.306111    0.333889     0.007504
AU7297   AU        0.278333    0.278333    0.333889     0.007504
AU7298   AU        0.278333    0.306111    0.361667     0.007504
AU7299   AU        0.306111    0.278333    0.361667     0.007504
AU7300   AU        0.306111    0.306111    0.333889     0.007504
AU7301   AU        0.333889    0.278333    0.333889     0.007504
AU7302   AU        0.333889    0.306111    0.361667     0.007504
AU7303   AU        0.361667    0.278333    0.361667     0.007504
AU7304   AU        0.361667    0.306111    0.333889     0.007504
AU7305   AU        0.389444    0.278333    0.333889     0.007504
AU7306   AU        0.389444    0.306111    0.361667     0.007504
AU7307   AU        0.417222    0.278333    0.361667     0.007504
AU7308   AU        0.417222    0.306111    0.333889     0.007504
AU7309   AU        0.445000    0.278333    0.333889     0.007504
AU7310   AU        0.445000    0.306111    0.361667     0.007504
AU7311   AU        0.472778    0.278333    0.361667     0.007504
AU7312   AU        0.472778    0.306111    0.333889     0.007504
AU7313   AU        0.500556    0.278333    0.333889     0.007504
AU7314   AU        0.500556    0.306111    0.361667     0.007504
AU7315   AU        0.528333    0.278333    0.361667     0.007504
AU7316   AU        0.528333    0.306111    0.333889     0.007504
AU7317   AU        0.556111    0.278333    0.333889     0.007504
AU7318   AU        0.556111    0.306111    0.361667     0.007504
AU7319   AU        0.583889    0.278333    0.361667     0.007504
AU7320   AU        0.583889    0.306111    0.333889     0.007504
PD7321   PD        0.611667    0.278333    0.333889     0.007504
PD7322   PD        0.611667    0.306111    0.361667     0.007504
AU7323   AU        0.639444    0.278333    0.361667     0.007504
PD7324   PD        0.639444    0.306111    0.333889     0.007504
PD7325   PD        0.667222    0.278333    0.333889     0.007504
PD7326   PD        0.667222    0.306111    0.361667     0.007504
PD7327   PD        0.695000    0.278333    0.361667     0.007504
PD7328   PD        0.695000    0.306111    0.333889     0.007504
PD7330   PD        0.722778    0.306111    0.361667     0.007504
PD7355   PD        0.139444    0.333889    0.361667     0.007504
PD7356   PD        0.139444    0.361667    0.333889     0.007504
PD7357   PD        0.167222    0.333889    0.333889     0.007504
PD7358   PD        0.167222    0.361667    0.361667     0.007504
PD7359   PD        0.195000    0.333889    0.361667     0.007504
PD7360   PD        0.195000    0.361667    0.333889     0.007504
PD7361   PD        0.222778    0.333889    0.333889     0.007504
AU7362   AU        0.222778    0.361667    0.361667     0.007504
AU7363   AU        0.250556    0.333889    0.361667     0.007504
AU7364   AU        0.250556    0.361667    0.333889     0.007504
PD7365   PD        0.278333    0.333889    0.333889     0.007504
AU7366   AU        0.278333    0.361667    0.361667     0.007504
AU7367   AU        0.306111    0.333889    0.361667     0.007504
AU7368   AU        0.306111    0.361667    0.333889     0.007504
AU7369   AU        0.333889    0.333889    0.333889     0.007504
AU7370   AU        0.333889    0.361667    0.361667     0.007504
AU7371   AU        0.361667    0.333889    0.361667     0.007504
AU7372   AU        0.361667    0.361667    0.333889     0.007504
AU7373   AU        0.389444    0.333889    0.333889     0.007504
AU7374   AU        0.389444    0.361667    0.361667     0.007504
AU7375   AU        0.417222    0.333889    0.361667     0.007504
AU7376   AU        0.417222    0.361667    0.333889     0.007504
AU7377   AU        0.445000    0.333889    0.333889     0.007504
AU7378   AU        0.445000    0.361667    0.361667     0.007504
AU7379   AU        0.472778    0.333889    0.361667     0.007504
AU7380   AU        0.472778    0.361667    0.333889     0.007504
AU7381   AU        0.500556    0.333889    0.333889     0.007504
AU7382   AU        0.500556    0.361667    0.361667     0.007504
AU7383   AU        0.528333    0.333889    0.361667     0.007504
AU7384   AU        0.528333    0.361667    0.333889     0.007504
AU7385   AU        0.556111    0.333889    0.333889     0.007504
AU7386   AU        0.556111    0.361667    0.361667     0.007504
AU7387   AU        0.583889    0.333889    0.361667     0.007504
AU7388   AU        0.583889    0.361667    0.333889     0.007504
AU7389   AU        0.611667    0.333889    0.333889     0.007504
AU7390   AU        0.611667    0.361667    0.361667     0.007504
AU7391   AU        0.639444    0.333889    0.361667     0.007504
AU7392   AU        0.639444    0.361667    0.333889     0.007504
PD7393   PD        0.667222    0.333889    0.333889     0.007504
PD7394   PD        0.667222    0.361667    0.361667     0.007504
PD7395   PD        0.695000    0.333889    0.361667     0.007504
PD7396   PD        0.695000    0.361667    0.333889     0.007504
PD7397   PD        0.722778    0.333889    0.333889     0.007504
AU7398   AU        0.722778    0.361667    0.361667     0.007504
PD7399   PD        0.750556    0.333889    0.361667     0.007504
PD7400   PD        0.750556    0.361667    0.333889     0.007504
PD7423   PD        0.139444    0.389444    0.361667     0.007504
PD7424   PD        0.139444    0.417222    0.333889     0.007504
PD7425   PD        0.167222    0.389444    0.333889     0.007504
AU7426   AU        0.167222    0.417222    0.361667     0.007504
AU7427   AU        0.195000    0.389444    0.361667     0.007504
PD7428   PD        0.195000    0.417222    0.333889     0.007504
AU7429   AU        0.222778    0.389444    0.333889     0.007504
AU7430   AU        0.222778    0.417222    0.361667     0.007504
AU7431   AU        0.250556    0.389444    0.361667     0.007504
AU7432   AU        0.250556    0.417222    0.333889     0.007504
AU7433   AU        0.278333    0.389444    0.333889     0.007504
AU7434   AU        0.278333    0.417222    0.361667     0.007504
AU7435   AU        0.306111    0.389444    0.361667     0.007504
AU7436   AU        0.306111    0.417222    0.333889     0.007504
AU7437   AU        0.333889    0.389444    0.333889     0.007504
AU7438   AU        0.333889    0.417222    0.361667     0.007504
AU7439   AU        0.361667    0.389444    0.361667     0.007504
AU7440   AU        0.361667    0.417222    0.333889     0.007504
AU7441   AU        0.389444    0.389444    0.333889     0.007504
AU7442   AU        0.389444    0.417222    0.361667     0.007504
AU7443   AU        0.417222    0.389444    0.361667     0.007504
AU7444   AU        0.417222    0.417222    0.333889     0.007504
AU7445   AU        0.445000    0.389444    0.333889     0.007504
AU7446   AU        0.445000    0.417222    0.361667     0.007504
AU7447   AU        0.472778    0.389444    0.361667     0.007504
AU7448   AU        0.472778    0.417222    0.333889     0.007504
AU7449   AU        0.500556    0.389444    0.333889     0.007504
AU7450   AU        0.500556    0.417222    0.361667     0.007504
AU7451   AU        0.528333    0.389444    0.361667     0.007504
AU7452   AU        0.528333    0.417222    0.333889     0.007504
AU7453   AU        0.556111    0.389444    0.333889     0.007504
AU7454   AU        0.556111    0.417222    0.361667     0.007504
AU7455   AU        0.583889    0.389444    0.361667     0.007504
AU7456   AU        0.583889    0.417222    0.333889     0.007504
AU7457   AU        0.611667    0.389444    0.333889     0.007504
AU7458   AU        0.611667    0.417222    0.361667     0.007504
AU7459   AU        0.639444    0.389444    0.361667     0.007504
AU7460   AU        0.639444    0.417222    0.333889     0.007504
AU7461   AU        0.667222    0.389444    0.333889     0.007504
AU7462   AU        0.667222    0.417222    0.361667     0.007504
AU7463   AU        0.695000    0.389444    0.361667     0.007504
AU7464   AU        0.695000    0.417222    0.333889     0.007504
PD7465   PD        0.722778    0.389444    0.333889     0.007504
PD7466   PD        0.722778    0.417222    0.361667     0.007504
PD7467   PD        0.750556    0.389444    0.361667     0.007504
PD7468   PD        0.750556    0.417222    0.333889     0.007504
PD7491   PD        0.139444    0.445000    0.361667     0.007504
PD7492   PD        0.139444    0.472778    0.333889     0.007504
AU7493   AU        0.167222    0.445000    0.333889     0.007504
PD7494   PD        0.167222    0.472778    0.361667     0.007504
PD7495   PD        0.195000    0.445000    0.361667     0.007504
AU7496   AU        0.195000    0.472778    0.333889     0.007504
PD7497   PD        0.222778    0.445000    0.333889     0.007504
AU7498   AU        0.222778    0.472778    0.361667     0.007504
AU7499   AU        0.250556    0.445000    0.361667     0.007504
AU7500   AU        0.250556    0.472778    0.333889     0.007504
AU7501   AU        0.278333    0.445000    0.333889     0.007504
AU7502   AU        0.278333    0.472778    0.361667     0.007504
AU7503   AU        0.306111    0.445000    0.361667     0.007504
AU7504   AU        0.306111    0.472778    0.333889     0.007504
AU7505   AU        0.333889    0.445000    0.333889     0.007504
AU7506   AU        0.333889    0.472778    0.361667     0.007504
AU7507   AU        0.361667    0.445000    0.361667     0.007504
AU7508   AU        0.361667    0.472778    0.333889     0.007504
AU7509   AU        0.389444    0.445000    0.333889     0.007504
AU7510   AU        0.389444    0.472778    0.361667     0.007504
AU7511   AU        0.417222    0.445000    0.361667     0.007504
AU7512   AU        0.417222    0.472778    0.333889     0.007504
AU7513   AU        0.445000    0.445000    0.333889     0.007504
AU7514   AU        0.445000    0.472778    0.361667     0.007504
AU7515   AU        0.472778    0.445000    0.361667     0.007504
AU7516   AU        0.472778    0.472778    0.333889     0.007504
AU7517   AU        0.500556    0.445000    0.333889     0.007504
AU7518   AU        0.500556    0.472778    0.361667     0.007504
AU7519   AU        0.528333    0.445000    0.361667     0.007504
AU7520   AU        0.528333    0.472778    0.333889     0.007504
AU7521   AU        0.556111    0.445000    0.333889     0.007504
AU7522   AU        0.556111    0.472778    0.361667     0.007504
AU7523   AU        0.583889    0.445000    0.361667     0.007504
AU7524   AU        0.583889    0.472778    0.333889     0.007504
AU7525   AU        0.611667    0.445000    0.333889     0.007504
AU7526   AU        0.611667    0.472778    0.361667     0.007504
AU7527   AU        0.639444    0.445000    0.361667     0.007504
AU7528   AU        0.639444    0.472778    0.333889     0.007504
AU7529   AU        0.667222    0.445000    0.333889     0.007504
AU7530   AU        0.667222    0.472778    0.361667     0.007504
PD7531   PD        0.695000    0.445000    0.361667     0.007504
PD7532   PD        0.695000    0.472778    0.333889     0.007504
PD7533   PD        0.722778    0.445000    0.333889     0.007504
PD7534   PD        0.722778    0.472778    0.361667     0.007504
PD7535   PD        0.750556    0.445000    0.361667     0.007504
PD7536   PD        0.750556    0.472778    0.333889     0.007504
AU7559   AU        0.139444    0.500556    0.361667     0.007504
PD7560   PD        0.139444    0.528333    0.333889     0.007504
PD7561   PD        0.167222    0.500556    0.333889     0.007504
PD7562   PD        0.167222    0.528333    0.361667     0.007504
AU7563   AU        0.195000    0.500556    0.361667     0.007504
PD7564   PD        0.195000    0.528333    0.333889     0.007504
PD7565   PD        0.222778    0.500556    0.333889     0.007504
AU7566   AU        0.222778    0.528333    0.361667     0.007504
AU7567   AU        0.250556    0.500556    0.361667     0.007504
AU7568   AU        0.250556    0.528333    0.333889     0.007504
AU7569   AU        0.278333    0.500556    0.333889     0.007504
AU7570   AU        0.278333    0.528333    0.361667     0.007504
AU7571   AU        0.306111    0.500556    0.361667     0.007504
AU7572   AU        0.306111    0.528333    0.333889     0.007504
AU7573   AU        0.333889    0.500556    0.333889     0.007504
AU7574   AU        0.333889    0.528333    0.361667     0.007504
AU7575   AU        0.361667    0.500556    0.361667     0.007504
AU7576   AU        0.361667    0.528333    0.333889     0.007504
AU7577   AU        0.389444    0.500556    0.333889     0.007504
AU7578   AU        0.389444    0.528333    0.361667     0.007504
AU7579   AU        0.417222    0.500556    0.361667     0.007504
AU7580   AU        0.417222    0.528333    0.333889     0.007504
AU7581   AU        0.445000    0.500556    0.333889     0.007504
AU7582   AU        0.445000    0.528333    0.361667     0.007504
AU7583   AU        0.472778    0.500556    0.361667     0.007504
AU7584   AU        0.472778    0.528333    0.333889     0.007504
AU7585   AU        0.500556    0.500556    0.333889     0.007504
AU7586   AU        0.500556    0.528333    0.361667     0.007504
AU7587   AU        0.528333    0.500556    0.361667     0.007504
AU7588   AU        0.528333    0.528333    0.333889     0.007504
AU7589   AU        0.556111    0.500556    0.333889     0.007504
AU7590   AU        0.556111    0.528333    0.361667     0.007504
AU7591   AU        0.583889    0.500556    0.361667     0.007504
AU7592   AU        0.583889    0.528333    0.333889     0.007504
AU7593   AU        0.611667    0.500556    0.333889     0.007504
AU7594   AU        0.611667    0.528333    0.361667     0.007504
AU7595   AU        0.639444    0.500556    0.361667     0.007504
PD7596   PD        0.639444    0.528333    0.333889     0.007504
AU7597   AU        0.667222    0.500556    0.333889     0.007504
PD7598   PD        0.667222    0.528333    0.361667     0.007504
PD7599   PD        0.695000    0.500556    0.361667     0.007504
PD7600   PD        0.695000    0.528333    0.333889     0.007504
PD7601   PD        0.722778    0.500556    0.333889     0.007504
PD7602   PD        0.722778    0.528333    0.361667     0.007504
PD7603   PD        0.750556    0.500556    0.361667     0.007504
PD7604   PD        0.750556    0.528333    0.333889     0.007504
PD7627   PD        0.139444    0.556111    0.361667     0.007504
PD7629   PD        0.167222    0.556111    0.333889     0.007504
PD7630   PD        0.167222    0.583889    0.361667     0.007504
PD7631   PD        0.195000    0.556111    0.361667     0.007504
PD7632   PD        0.195000    0.583889    0.333889     0.007504
AU7633   AU        0.222778    0.556111    0.333889     0.007504
PD7634   PD        0.222778    0.583889    0.361667     0.007504
AU7635   AU        0.250556    0.556111    0.361667     0.007504
AU7636   AU        0.250556    0.583889    0.333889     0.007504
AU7637   AU        0.278333    0.556111    0.333889     0.007504
AU7638   AU        0.278333    0.583889    0.361667     0.007504
AU7639   AU        0.306111    0.556111    0.361667     0.007504
PD7640   PD        0.306111    0.583889    0.333889     0.007504
AU7641   AU        0.333889    0.556111    0.333889     0.007504
AU7642   AU        0.333889    0.583889    0.361667     0.007504
AU7643   AU        0.361667    0.556111    0.361667     0.007504
AU7644   AU        0.361667    0.583889    0.333889     0.007504
AU7645   AU        0.389444    0.556111    0.333889     0.007504
AU7646   AU        0.389444    0.583889    0.361667     0.007504
AU7647   AU        0.417222    0.556111    0.361667     0.007504
AU7648   AU        0.417222    0.583889    0.333889     0.007504
AU7649   AU        0.445000    0.556111    0.333889     0.007504
AU7650   AU        0.445000    0.583889    0.361667     0.007504
AU7651   AU        0.472778    0.556111    0.361667     0.007504
AU7652   AU        0.472778    0.583889    0.333889     0.007504
AU7653   AU        0.500556    0.556111    0.333889     0.007504
AU7654   AU        0.500556    0.583889    0.361667     0.007504
AU7655   AU        0.528333    0.556111    0.361667     0.007504
AU7656   AU        0.528333    0.583889    0.333889     0.007504
AU7657   AU        0.556111    0.556111    0.333889     0.007504
AU7658   AU        0.556111    0.583889    0.361667     0.007504
AU7659   AU        0.583889    0.556111    0.361667     0.007504
AU7660   AU        0.583889    0.583889    0.333889     0.007504
AU7661   AU        0.611667    0.556111    0.333889     0.007504
AU7662   AU        0.611667    0.583889    0.361667     0.007504
PD7663   PD        0.639444    0.556111    0.361667     0.007504
PD7664   PD        0.639444    0.583889    0.333889     0.007504
PD7665   PD        0.667222    0.556111    0.333889     0.007504
AU7666   AU        0.667222    0.583889    0.361667     0.007504
AU7667   AU        0.695000    0.556111    0.361667     0.007504
PD7668   PD        0.695000    0.583889    0.333889     0.007504
PD7669   PD        0.722778    0.556111    0.333889     0.007504
PD7670   PD        0.722778    0.583889    0.361667     0.007504
PD7671   PD        0.750556    0.556111    0.361667     0.007504
PD7699   PD        0.195000    0.611667    0.361667     0.007504
PD7700   PD        0.195000    0.639444    0.333889     0.007504
AU7701   AU        0.222778    0.611667    0.333889     0.007504
PD7702   PD        0.222778    0.639444    0.361667     0.007504
AU7703   AU        0.250556    0.611667    0.361667     0.007504
PD7704   PD        0.250556    0.639444    0.333889     0.007504
AU7705   AU        0.278333    0.611667    0.333889     0.007504
PD7706   PD        0.278333    0.639444    0.361667     0.007504
AU7707   AU        0.306111    0.611667    0.361667     0.007504
AU7708   AU        0.306111    0.639444    0.333889     0.007504
AU7709   AU        0.333889    0.611667    0.333889     0.007504
AU7710   AU        0.333889    0.639444    0.361667     0.007504
AU7711   AU        0.361667    0.611667    0.361667     0.007504
PD7712   PD        0.361667    0.639444    0.333889     0.007504
AU7713   AU        0.389444    0.611667    0.333889     0.007504
AU7714   AU        0.389444    0.639444    0.361667     0.007504
AU7715   AU        0.417222    0.611667    0.361667     0.007504
AU7716   AU        0.417222    0.639444    0.333889     0.007504
AU7717   AU        0.445000    0.611667    0.333889     0.007504
AU7718   AU        0.445000    0.639444    0.361667     0.007504
AU7719   AU        0.472778    0.611667    0.361667     0.007504
AU7720   AU        0.472778    0.639444    0.333889     0.007504
AU7721   AU        0.500556    0.611667    0.333889     0.007504
AU7722   AU        0.500556    0.639444    0.361667     0.007504
AU7723   AU        0.528333    0.611667    0.361667     0.007504
AU7724   AU        0.528333    0.639444    0.333889     0.007504
AU7725   AU        0.556111    0.611667    0.333889     0.007504
PD7726   PD        0.556111    0.639444    0.361667     0.007504
AU7727   AU        0.583889    0.611667    0.361667     0.007504
PD7728   PD        0.583889    0.639444    0.333889     0.007504
AU7729   AU        0.611667    0.611667    0.333889     0.007504
PD7730   PD        0.611667    0.639444    0.361667     0.007504
PD7731   PD        0.639444    0.611667    0.361667     0.007504
AU7732   AU        0.639444    0.639444    0.333889     0.007504
PD7733   PD        0.667222    0.611667    0.333889     0.007504
PD7734   PD        0.667222    0.639444    0.361667     0.007504
PD7735   PD        0.695000    0.611667    0.361667     0.007504
PD7736   PD        0.695000    0.639444    0.333889     0.007504
AU7769   AU        0.222778    0.667222    0.333889     0.007504
PD7771   PD        0.250556    0.667222    0.361667     0.007504
PD7772   PD        0.250556    0.695000    0.333889     0.007504
PD7773   PD        0.278333    0.667222    0.333889     0.007504
PD7774   PD        0.278333    0.695000    0.361667     0.007504
PD7775   PD        0.306111    0.667222    0.361667     0.007504
PD7776   PD        0.306111    0.695000    0.333889     0.007504
PD7777   PD        0.333889    0.667222    0.333889     0.007504
PD7778   PD        0.333889    0.695000    0.361667     0.007504
PD7779   PD        0.361667    0.667222    0.361667     0.007504
AU7780   AU        0.361667    0.695000    0.333889     0.007504
PD7781   PD        0.389444    0.667222    0.333889     0.007504
PD7782   PD        0.389444    0.695000    0.361667     0.007504
AU7783   AU        0.417222    0.667222    0.361667     0.007504
PD7784   PD        0.417222    0.695000    0.333889     0.007504
AU7785   AU        0.445000    0.667222    0.333889     0.007504
AU7786   AU        0.445000    0.695000    0.361667     0.007504
AU7787   AU        0.472778    0.667222    0.361667     0.007504
AU7788   AU        0.472778    0.695000    0.333889     0.007504
AU7789   AU        0.500556    0.667222    0.333889     0.007504
AU7790   AU        0.500556    0.695000    0.361667     0.007504
PD7791   PD        0.528333    0.667222    0.361667     0.007504
AU7792   AU        0.528333    0.695000    0.333889     0.007504
PD7793   PD        0.556111    0.667222    0.333889     0.007504
AU7794   AU        0.556111    0.695000    0.361667     0.007504
AU7795   AU        0.583889    0.667222    0.361667     0.007504
PD7796   PD        0.583889    0.695000    0.333889     0.007504
PD7797   PD        0.611667    0.667222    0.333889     0.007504
PD7798   PD        0.611667    0.695000    0.361667     0.007504
PD7799   PD        0.639444    0.667222    0.361667     0.007504
PD7800   PD        0.639444    0.695000    0.333889     0.007504
PD7801   PD        0.667222    0.667222    0.333889     0.007504
PD7843   PD        0.306111    0.722778    0.361667     0.007504
PD7845   PD        0.333889    0.722778    0.333889     0.007504
PD7846   PD        0.333889    0.750556    0.361667     0.007504
PD7847   PD        0.361667    0.722778    0.361667     0.007504
PD7848   PD        0.361667    0.750556    0.333889     0.007504
PD7849   PD        0.389444    0.722778    0.333889     0.007504
PD7850   PD        0.389444    0.750556    0.361667     0.007504
PD7851   PD        0.417222    0.722778    0.361667     0.007504
PD7852   PD        0.417222    0.750556    0.333889     0.007504
PD7853   PD        0.445000    0.722778    0.333889     0.007504
AU7854   AU        0.445000    0.750556    0.361667     0.007504
AU7855   AU        0.472778    0.722778    0.361667     0.007504
PD7856   PD        0.472778    0.750556    0.333889     0.007504
PD7857   PD        0.500556    0.722778    0.333889     0.007504
PD7858   PD        0.500556    0.750556    0.361667     0.007504
PD7859   PD        0.528333    0.722778    0.361667     0.007504
PD7860   PD        0.528333    0.750556    0.333889     0.007504
PD7861   PD        0.556111    0.722778    0.333889     0.007504
PD7862   PD        0.556111    0.750556    0.361667     0.007504
PD7863   PD        0.583889    0.722778    0.361667     0.007504
PD8252   PD        0.306111    0.139444    0.389444     0.007504
PD8254   PD        0.333889    0.139444    0.417222     0.007504
PD8256   PD        0.361667    0.139444    0.389444     0.007504
PD8258   PD        0.389444    0.139444    0.417222     0.007504
PD8259   PD        0.417222    0.111667    0.417222     0.007504
AU8260   AU        0.417222    0.139444    0.389444     0.007504
PD8261   PD        0.445000    0.111667    0.389444     0.007504
PD8262   PD        0.445000    0.139444    0.417222     0.007504
PD8263   PD        0.472778    0.111667    0.417222     0.007504
PD8264   PD        0.472778    0.139444    0.389444     0.007504
PD8266   PD        0.500556    0.139444    0.417222     0.007504
PD8268   PD        0.528333    0.139444    0.389444     0.007504
PD8270   PD        0.556111    0.139444    0.417222     0.007504
PD8272   PD        0.583889    0.139444    0.389444     0.007504
PD8314   PD        0.222778    0.195000    0.417222     0.007504
PD8315   PD        0.250556    0.167222    0.417222     0.007504
PD8316   PD        0.250556    0.195000    0.389444     0.007504
PD8317   PD        0.278333    0.167222    0.389444     0.007504
PD8318   PD        0.278333    0.195000    0.417222     0.007504
PD8319   PD        0.306111    0.167222    0.417222     0.007504
AU8320   AU        0.306111    0.195000    0.389444     0.007504
AU8321   AU        0.333889    0.167222    0.389444     0.007504
AU8322   AU        0.333889    0.195000    0.417222     0.007504
AU8323   AU        0.361667    0.167222    0.417222     0.007504
PD8324   PD        0.361667    0.195000    0.389444     0.007504
PD8325   PD        0.389444    0.167222    0.389444     0.007504
PD8326   PD        0.389444    0.195000    0.417222     0.007504
PD8327   PD        0.417222    0.167222    0.417222     0.007504
AU8328   AU        0.417222    0.195000    0.389444     0.007504
PD8329   PD        0.445000    0.167222    0.389444     0.007504
PD8330   PD        0.445000    0.195000    0.417222     0.007504
PD8331   PD        0.472778    0.167222    0.417222     0.007504
AU8332   AU        0.472778    0.195000    0.389444     0.007504
AU8333   AU        0.500556    0.167222    0.389444     0.007504
AU8334   AU        0.500556    0.195000    0.417222     0.007504
PD8335   PD        0.528333    0.167222    0.417222     0.007504
AU8336   AU        0.528333    0.195000    0.389444     0.007504
PD8337   PD        0.556111    0.167222    0.389444     0.007504
PD8338   PD        0.556111    0.195000    0.417222     0.007504
PD8339   PD        0.583889    0.167222    0.417222     0.007504
PD8340   PD        0.583889    0.195000    0.389444     0.007504
PD8341   PD        0.611667    0.167222    0.389444     0.007504
AU8342   AU        0.611667    0.195000    0.417222     0.007504
PD8343   PD        0.639444    0.167222    0.417222     0.007504
PD8344   PD        0.639444    0.195000    0.389444     0.007504
PD8346   PD        0.667222    0.195000    0.417222     0.007504
PD8378   PD        0.167222    0.250556    0.417222     0.007504
PD8379   PD        0.195000    0.222778    0.417222     0.007504
PD8380   PD        0.195000    0.250556    0.389444     0.007504
PD8381   PD        0.222778    0.222778    0.389444     0.007504
AU8382   AU        0.222778    0.250556    0.417222     0.007504
PD8383   PD        0.250556    0.222778    0.417222     0.007504
AU8384   AU        0.250556    0.250556    0.389444     0.007504
PD8385   PD        0.278333    0.222778    0.389444     0.007504
AU8386   AU        0.278333    0.250556    0.417222     0.007504
AU8387   AU        0.306111    0.222778    0.417222     0.007504
AU8388   AU        0.306111    0.250556    0.389444     0.007504
PD8389   PD        0.333889    0.222778    0.389444     0.007504
AU8390   AU        0.333889    0.250556    0.417222     0.007504
AU8391   AU        0.361667    0.222778    0.417222     0.007504
AU8392   AU        0.361667    0.250556    0.389444     0.007504
AU8393   AU        0.389444    0.222778    0.389444     0.007504
AU8394   AU        0.389444    0.250556    0.417222     0.007504
AU8395   AU        0.417222    0.222778    0.417222     0.007504
AU8396   AU        0.417222    0.250556    0.389444     0.007504
AU8397   AU        0.445000    0.222778    0.389444     0.007504
AU8398   AU        0.445000    0.250556    0.417222     0.007504
AU8399   AU        0.472778    0.222778    0.417222     0.007504
AU8400   AU        0.472778    0.250556    0.389444     0.007504
AU8401   AU        0.500556    0.222778    0.389444     0.007504
AU8402   AU        0.500556    0.250556    0.417222     0.007504
PD8403   PD        0.528333    0.222778    0.417222     0.007504
AU8404   AU        0.528333    0.250556    0.389444     0.007504
AU8405   AU        0.556111    0.222778    0.389444     0.007504
AU8406   AU        0.556111    0.250556    0.417222     0.007504
PD8407   PD        0.583889    0.222778    0.417222     0.007504
PD8408   PD        0.583889    0.250556    0.389444     0.007504
PD8409   PD        0.611667    0.222778    0.389444     0.007504
PD8410   PD        0.611667    0.250556    0.417222     0.007504
PD8411   PD        0.639444    0.222778    0.417222     0.007504
PD8412   PD        0.639444    0.250556    0.389444     0.007504
AU8413   AU        0.667222    0.222778    0.389444     0.007504
PD8414   PD        0.667222    0.250556    0.417222     0.007504
PD8415   PD        0.695000    0.222778    0.417222     0.007504
PD8416   PD        0.695000    0.250556    0.389444     0.007504
PD8418   PD        0.722778    0.250556    0.417222     0.007504
PD8444   PD        0.139444    0.306111    0.389444     0.007504
PD8445   PD        0.167222    0.278333    0.389444     0.007504
PD8446   PD        0.167222    0.306111    0.417222     0.007504
PD8447   PD        0.195000    0.278333    0.417222     0.007504
PD8448   PD        0.195000    0.306111    0.389444     0.007504
PD8449   PD        0.222778    0.278333    0.389444     0.007504
AU8450   AU        0.222778    0.306111    0.417222     0.007504
AU8451   AU        0.250556    0.278333    0.417222     0.007504
AU8452   AU        0.250556    0.306111    0.389444     0.007504
AU8453   AU        0.278333    0.278333    0.389444     0.007504
AU8454   AU        0.278333    0.306111    0.417222     0.007504
AU8455   AU        0.306111    0.278333    0.417222     0.007504
AU8456   AU        0.306111    0.306111    0.389444     0.007504
AU8457   AU        0.333889    0.278333    0.389444     0.007504
AU8458   AU        0.333889    0.306111    0.417222     0.007504
AU8459   AU        0.361667    0.278333    0.417222     0.007504
AU8460   AU        0.361667    0.306111    0.389444     0.007504
AU8461   AU        0.389444    0.278333    0.389444     0.007504
AU8462   AU        0.389444    0.306111    0.417222     0.007504
AU8463   AU        0.417222    0.278333    0.417222     0.007504
AU8464   AU        0.417222    0.306111    0.389444     0.007504
AU8465   AU        0.445000    0.278333    0.389444     0.007504
AU8466   AU        0.445000    0.306111    0.417222     0.007504
AU8467   AU        0.472778    0.278333    0.417222     0.007504
AU8468   AU        0.472778    0.306111    0.389444     0.007504
AU8469   AU        0.500556    0.278333    0.389444     0.007504
AU8470   AU        0.500556    0.306111    0.417222     0.007504
AU8471   AU        0.528333    0.278333    0.417222     0.007504
AU8472   AU        0.528333    0.306111    0.389444     0.007504
AU8473   AU        0.556111    0.278333    0.389444     0.007504
AU8474   AU        0.556111    0.306111    0.417222     0.007504
AU8475   AU        0.583889    0.278333    0.417222     0.007504
AU8476   AU        0.583889    0.306111    0.389444     0.007504
AU8477   AU        0.611667    0.278333    0.389444     0.007504
AU8478   AU        0.611667    0.306111    0.417222     0.007504
AU8479   AU        0.639444    0.278333    0.417222     0.007504
AU8480   AU        0.639444    0.306111    0.389444     0.007504
AU8481   AU        0.667222    0.278333    0.389444     0.007504
AU8482   AU        0.667222    0.306111    0.417222     0.007504
PD8483   PD        0.695000    0.278333    0.417222     0.007504
PD8484   PD        0.695000    0.306111    0.389444     0.007504
AU8485   AU        0.722778    0.278333    0.389444     0.007504
PD8486   PD        0.722778    0.306111    0.417222     0.007504
PD8488   PD        0.750556    0.306111    0.389444     0.007504
PD8511   PD        0.139444    0.333889    0.417222     0.007504
PD8512   PD        0.139444    0.361667    0.389444     0.007504
PD8513   PD        0.167222    0.333889    0.389444     0.007504
PD8514   PD        0.167222    0.361667    0.417222     0.007504
AU8515   AU        0.195000    0.333889    0.417222     0.007504
PD8516   PD        0.195000    0.361667    0.389444     0.007504
PD8517   PD        0.222778    0.333889    0.389444     0.007504
AU8518   AU        0.222778    0.361667    0.417222     0.007504
AU8519   AU        0.250556    0.333889    0.417222     0.007504
AU8520   AU        0.250556    0.361667    0.389444     0.007504
AU8521   AU        0.278333    0.333889    0.389444     0.007504
AU8522   AU        0.278333    0.361667    0.417222     0.007504
AU8523   AU        0.306111    0.333889    0.417222     0.007504
AU8524   AU        0.306111    0.361667    0.389444     0.007504
AU8525   AU        0.333889    0.333889    0.389444     0.007504
AU8526   AU        0.333889    0.361667    0.417222     0.007504
AU8527   AU        0.361667    0.333889    0.417222     0.007504
AU8528   AU        0.361667    0.361667    0.389444     0.007504
AU8529   AU        0.389444    0.333889    0.389444     0.007504
AU8530   AU        0.389444    0.361667    0.417222     0.007504
AU8531   AU        0.417222    0.333889    0.417222     0.007504
AU8532   AU        0.417222    0.361667    0.389444     0.007504
AU8533   AU        0.445000    0.333889    0.389444     0.007504
AU8534   AU        0.445000    0.361667    0.417222     0.007504
AU8535   AU        0.472778    0.333889    0.417222     0.007504
AU8536   AU        0.472778    0.361667    0.389444     0.007504
AU8537   AU        0.500556    0.333889    0.389444     0.007504
AU8538   AU        0.500556    0.361667    0.417222     0.007504
AU8539   AU        0.528333    0.333889    0.417222     0.007504
AU8540   AU        0.528333    0.361667    0.389444     0.007504
AU8541   AU        0.556111    0.333889    0.389444     0.007504
AU8542   AU        0.556111    0.361667    0.417222     0.007504
AU8543   AU        0.583889    0.333889    0.417222     0.007504
AU8544   AU        0.583889    0.361667    0.389444     0.007504
AU8545   AU        0.611667    0.333889    0.389444     0.007504
AU8546   AU        0.611667    0.361667    0.417222     0.007504
AU8547   AU        0.639444    0.333889    0.417222     0.007504
AU8548   AU        0.639444    0.361667    0.389444     0.007504
AU8549   AU        0.667222    0.333889    0.389444     0.007504
AU8550   AU        0.667222    0.361667    0.417222     0.007504
PD8551   PD        0.695000    0.333889    0.417222     0.007504
AU8552   AU        0.695000    0.361667    0.389444     0.007504
PD8553   PD        0.722778    0.333889    0.389444     0.007504
AU8554   AU        0.722778    0.361667    0.417222     0.007504
PD8555   PD        0.750556    0.333889    0.417222     0.007504
PD8556   PD        0.750556    0.361667    0.389444     0.007504
PD8578   PD        0.111667    0.417222    0.417222     0.007504
PD8579   PD        0.139444    0.389444    0.417222     0.007504
PD8580   PD        0.139444    0.417222    0.389444     0.007504
PD8581   PD        0.167222    0.389444    0.389444     0.007504
AU8582   AU        0.167222    0.417222    0.417222     0.007504
AU8583   AU        0.195000    0.389444    0.417222     0.007504
AU8584   AU        0.195000    0.417222    0.389444     0.007504
AU8585   AU        0.222778    0.389444    0.389444     0.007504
AU8586   AU        0.222778    0.417222    0.417222     0.007504
AU8587   AU        0.250556    0.389444    0.417222     0.007504
AU8588   AU        0.250556    0.417222    0.389444     0.007504
AU8589   AU        0.278333    0.389444    0.389444     0.007504
AU8590   AU        0.278333    0.417222    0.417222     0.007504
AU8591   AU        0.306111    0.389444    0.417222     0.007504
AU8592   AU        0.306111    0.417222    0.389444     0.007504
AU8593   AU        0.333889    0.389444    0.389444     0.007504
AU8594   AU        0.333889    0.417222    0.417222     0.007504
AU8595   AU        0.361667    0.389444    0.417222     0.007504
AU8596   AU        0.361667    0.417222    0.389444     0.007504
AU8597   AU        0.389444    0.389444    0.389444     0.007504
AU8598   AU        0.389444    0.417222    0.417222     0.007504
AU8599   AU        0.417222    0.389444    0.417222     0.007504
AU8600   AU        0.417222    0.417222    0.389444     0.007504
AU8601   AU        0.445000    0.389444    0.389444     0.007504
AU8602   AU        0.445000    0.417222    0.417222     0.007504
AU8603   AU        0.472778    0.389444    0.417222     0.007504
AU8604   AU        0.472778    0.417222    0.389444     0.007504
AU8605   AU        0.500556    0.389444    0.389444     0.007504
AU8606   AU        0.500556    0.417222    0.417222     0.007504
AU8607   AU        0.528333    0.389444    0.417222     0.007504
AU8608   AU        0.528333    0.417222    0.389444     0.007504
AU8609   AU        0.556111    0.389444    0.389444     0.007504
AU8610   AU        0.556111    0.417222    0.417222     0.007504
AU8611   AU        0.583889    0.389444    0.417222     0.007504
AU8612   AU        0.583889    0.417222    0.389444     0.007504
AU8613   AU        0.611667    0.389444    0.389444     0.007504
AU8614   AU        0.611667    0.417222    0.417222     0.007504
AU8615   AU        0.639444    0.389444    0.417222     0.007504
AU8616   AU        0.639444    0.417222    0.389444     0.007504
AU8617   AU        0.667222    0.389444    0.389444     0.007504
AU8618   AU        0.667222    0.417222    0.417222     0.007504
AU8619   AU        0.695000    0.389444    0.417222     0.007504
PD8620   PD        0.695000    0.417222    0.389444     0.007504
PD8621   PD        0.722778    0.389444    0.389444     0.007504
AU8622   AU        0.722778    0.417222    0.417222     0.007504
PD8623   PD        0.750556    0.389444    0.417222     0.007504
PD8624   PD        0.750556    0.417222    0.389444     0.007504
PD8626   PD        0.778333    0.417222    0.417222     0.007504
PD8645   PD        0.111667    0.445000    0.389444     0.007504
PD8646   PD        0.111667    0.472778    0.417222     0.007504
PD8647   PD        0.139444    0.445000    0.417222     0.007504
PD8648   PD        0.139444    0.472778    0.389444     0.007504
PD8649   PD        0.167222    0.445000    0.389444     0.007504
PD8650   PD        0.167222    0.472778    0.417222     0.007504
AU8651   AU        0.195000    0.445000    0.417222     0.007504
PD8652   PD        0.195000    0.472778    0.389444     0.007504
AU8653   AU        0.222778    0.445000    0.389444     0.007504
AU8654   AU        0.222778    0.472778    0.417222     0.007504
AU8655   AU        0.250556    0.445000    0.417222     0.007504
AU8656   AU        0.250556    0.472778    0.389444     0.007504
AU8657   AU        0.278333    0.445000    0.389444     0.007504
AU8658   AU        0.278333    0.472778    0.417222     0.007504
AU8659   AU        0.306111    0.445000    0.417222     0.007504
AU8660   AU        0.306111    0.472778    0.389444     0.007504
AU8661   AU        0.333889    0.445000    0.389444     0.007504
AU8662   AU        0.333889    0.472778    0.417222     0.007504
AU8663   AU        0.361667    0.445000    0.417222     0.007504
AU8664   AU        0.361667    0.472778    0.389444     0.007504
AU8665   AU        0.389444    0.445000    0.389444     0.007504
AU8666   AU        0.389444    0.472778    0.417222     0.007504
AU8667   AU        0.417222    0.445000    0.417222     0.007504
AU8668   AU        0.417222    0.472778    0.389444     0.007504
AU8669   AU        0.445000    0.445000    0.389444     0.007504
AU8670   AU        0.445000    0.472778    0.417222     0.007504
AU8671   AU        0.472778    0.445000    0.417222     0.007504
AU8672   AU        0.472778    0.472778    0.389444     0.007504
AU8673   AU        0.500556    0.445000    0.389444     0.007504
AU8674   AU        0.500556    0.472778    0.417222     0.007504
AU8675   AU        0.528333    0.445000    0.417222     0.007504
AU8676   AU        0.528333    0.472778    0.389444     0.007504
AU8677   AU        0.556111    0.445000    0.389444     0.007504
AU8678   AU        0.556111    0.472778    0.417222     0.007504
AU8679   AU        0.583889    0.445000    0.417222     0.007504
AU8680   AU        0.583889    0.472778    0.389444     0.007504
AU8681   AU        0.611667    0.445000    0.389444     0.007504
AU8682   AU        0.611667    0.472778    0.417222     0.007504
AU8683   AU        0.639444    0.445000    0.417222     0.007504
PD8684   PD        0.639444    0.472778    0.389444     0.007504
AU8685   AU        0.667222    0.445000    0.389444     0.007504
AU8686   AU        0.667222    0.472778    0.417222     0.007504
AU8687   AU        0.695000    0.445000    0.417222     0.007504
AU8688   AU        0.695000    0.472778    0.389444     0.007504
PD8689   PD        0.722778    0.445000    0.389444     0.007504
AU8690   AU        0.722778    0.472778    0.417222     0.007504
AU8691   AU        0.750556    0.445000    0.417222     0.007504
PD8692   PD        0.750556    0.472778    0.389444     0.007504
PD8693   PD        0.778333    0.445000    0.389444     0.007504
PD8694   PD        0.778333    0.472778    0.417222     0.007504
PD8715   PD        0.139444    0.500556    0.417222     0.007504
PD8716   PD        0.139444    0.528333    0.389444     0.007504
PD8717   PD        0.167222    0.500556    0.389444     0.007504
PD8718   PD        0.167222    0.528333    0.417222     0.007504
AU8719   AU        0.195000    0.500556    0.417222     0.007504
PD8720   PD        0.195000    0.528333    0.389444     0.007504
PD8721   PD        0.222778    0.500556    0.389444     0.007504
AU8722   AU        0.222778    0.528333    0.417222     0.007504
AU8723   AU        0.250556    0.500556    0.417222     0.007504
AU8724   AU        0.250556    0.528333    0.389444     0.007504
AU8725   AU        0.278333    0.500556    0.389444     0.007504
AU8726   AU        0.278333    0.528333    0.417222     0.007504
AU8727   AU        0.306111    0.500556    0.417222     0.007504
AU8728   AU        0.306111    0.528333    0.389444     0.007504
AU8729   AU        0.333889    0.500556    0.389444     0.007504
AU8730   AU        0.333889    0.528333    0.417222     0.007504
AU8731   AU        0.361667    0.500556    0.417222     0.007504
AU8732   AU        0.361667    0.528333    0.389444     0.007504
AU8733   AU        0.389444    0.500556    0.389444     0.007504
AU8734   AU        0.389444    0.528333    0.417222     0.007504
AU8735   AU        0.417222    0.500556    0.417222     0.007504
AU8736   AU        0.417222    0.528333    0.389444     0.007504
AU8737   AU        0.445000    0.500556    0.389444     0.007504
AU8738   AU        0.445000    0.528333    0.417222     0.007504
AU8739   AU        0.472778    0.500556    0.417222     0.007504
AU8740   AU        0.472778    0.528333    0.389444     0.007504
AU8741   AU        0.500556    0.500556    0.389444     0.007504
AU8742   AU        0.500556    0.528333    0.417222     0.007504
AU8743   AU        0.528333    0.500556    0.417222     0.007504
AU8744   AU        0.528333    0.528333    0.389444     0.007504
AU8745   AU        0.556111    0.500556    0.389444     0.007504
AU8746   AU        0.556111    0.528333    0.417222     0.007504
AU8747   AU        0.583889    0.500556    0.417222     0.007504
AU8748   AU        0.583889    0.528333    0.389444     0.007504
AU8749   AU        0.611667    0.500556    0.389444     0.007504
AU8750   AU        0.611667    0.528333    0.417222     0.007504
AU8751   AU        0.639444    0.500556    0.417222     0.007504
AU8752   AU        0.639444    0.528333    0.389444     0.007504
PD8753   PD        0.667222    0.500556    0.389444     0.007504
AU8754   AU        0.667222    0.528333    0.417222     0.007504
PD8755   PD        0.695000    0.500556    0.417222     0.007504
PD8756   PD        0.695000    0.528333    0.389444     0.007504
PD8757   PD        0.722778    0.500556    0.389444     0.007504
AU8758   AU        0.722778    0.528333    0.417222     0.007504
AU8759   AU        0.750556    0.500556    0.417222     0.007504
PD8760   PD        0.750556    0.528333    0.389444     0.007504
PD8783   PD        0.139444    0.556111    0.417222     0.007504
PD8784   PD        0.139444    0.583889    0.389444     0.007504
PD8785   PD        0.167222    0.556111    0.389444     0.007504
PD8786   PD        0.167222    0.583889    0.417222     0.007504
AU8787   AU        0.195000    0.556111    0.417222     0.007504
PD8788   PD        0.195000    0.583889    0.389444     0.007504
AU8789   AU        0.222778    0.556111    0.389444     0.007504
AU8790   AU        0.222778    0.583889    0.417222     0.007504
AU8791   AU        0.250556    0.556111    0.417222     0.007504
AU8792   AU        0.250556    0.583889    0.389444     0.007504
AU8793   AU        0.278333    0.556111    0.389444     0.007504
AU8794   AU        0.278333    0.583889    0.417222     0.007504
AU8795   AU        0.306111    0.556111    0.417222     0.007504
AU8796   AU        0.306111    0.583889    0.389444     0.007504
AU8797   AU        0.333889    0.556111    0.389444     0.007504
AU8798   AU        0.333889    0.583889    0.417222     0.007504
AU8799   AU        0.361667    0.556111    0.417222     0.007504
AU8800   AU        0.361667    0.583889    0.389444     0.007504
AU8801   AU        0.389444    0.556111    0.389444     0.007504
AU8802   AU        0.389444    0.583889    0.417222     0.007504
AU8803   AU        0.417222    0.556111    0.417222     0.007504
AU8804   AU        0.417222    0.583889    0.389444     0.007504
AU8805   AU        0.445000    0.556111    0.389444     0.007504
AU8806   AU        0.445000    0.583889    0.417222     0.007504
AU8807   AU        0.472778    0.556111    0.417222     0.007504
AU8808   AU        0.472778    0.583889    0.389444     0.007504
AU8809   AU        0.500556    0.556111    0.389444     0.007504
AU8810   AU        0.500556    0.583889    0.417222     0.007504
AU8811   AU        0.528333    0.556111    0.417222     0.007504
AU8812   AU        0.528333    0.583889    0.389444     0.007504
AU8813   AU        0.556111    0.556111    0.389444     0.007504
AU8814   AU        0.556111    0.583889    0.417222     0.007504
AU8815   AU        0.583889    0.556111    0.417222     0.007504
AU8816   AU        0.583889    0.583889    0.389444     0.007504
AU8817   AU        0.611667    0.556111    0.389444     0.007504
AU8818   AU        0.611667    0.583889    0.417222     0.007504
PD8819   PD        0.639444    0.556111    0.417222     0.007504
AU8820   AU        0.639444    0.583889    0.389444     0.007504
AU8821   AU        0.667222    0.556111    0.389444     0.007504
PD8822   PD        0.667222    0.583889    0.417222     0.007504
AU8823   AU        0.695000    0.556111    0.417222     0.007504
PD8824   PD        0.695000    0.583889    0.389444     0.007504
PD8825   PD        0.722778    0.556111    0.389444     0.007504
PD8826   PD        0.722778    0.583889    0.417222     0.007504
PD8827   PD        0.750556    0.556111    0.417222     0.007504
PD8828   PD        0.750556    0.583889    0.389444     0.007504
PD8853   PD        0.167222    0.611667    0.389444     0.007504
PD8854   PD        0.167222    0.639444    0.417222     0.007504
PD8855   PD        0.195000    0.611667    0.417222     0.007504
PD8856   PD        0.195000    0.639444    0.389444     0.007504
PD8857   PD        0.222778    0.611667    0.389444     0.007504
PD8858   PD        0.222778    0.639444    0.417222     0.007504
PD8859   PD        0.250556    0.611667    0.417222     0.007504
PD8860   PD        0.250556    0.639444    0.389444     0.007504
AU8861   AU        0.278333    0.611667    0.389444     0.007504
AU8862   AU        0.278333    0.639444    0.417222     0.007504
AU8863   AU        0.306111    0.611667    0.417222     0.007504
AU8864   AU        0.306111    0.639444    0.389444     0.007504
AU8865   AU        0.333889    0.611667    0.389444     0.007504
PD8866   PD        0.333889    0.639444    0.417222     0.007504
AU8867   AU        0.361667    0.611667    0.417222     0.007504
AU8868   AU        0.361667    0.639444    0.389444     0.007504
AU8869   AU        0.389444    0.611667    0.389444     0.007504
AU8870   AU        0.389444    0.639444    0.417222     0.007504
AU8871   AU        0.417222    0.611667    0.417222     0.007504
AU8872   AU        0.417222    0.639444    0.389444     0.007504
AU8873   AU        0.445000    0.611667    0.389444     0.007504
AU8874   AU        0.445000    0.639444    0.417222     0.007504
AU8875   AU        0.472778    0.611667    0.417222     0.007504
AU8876   AU        0.472778    0.639444    0.389444     0.007504
AU8877   AU        0.500556    0.611667    0.389444     0.007504
AU8878   AU        0.500556    0.639444    0.417222     0.007504
AU8879   AU        0.528333    0.611667    0.417222     0.007504
AU8880   AU        0.528333    0.639444    0.389444     0.007504
AU8881   AU        0.556111    0.611667    0.389444     0.007504
AU8882   AU        0.556111    0.639444    0.417222     0.007504
AU8883   AU        0.583889    0.611667    0.417222     0.007504
AU8884   AU        0.583889    0.639444    0.389444     0.007504
PD8885   PD        0.611667    0.611667    0.389444     0.007504
AU8886   AU        0.611667    0.639444    0.417222     0.007504
AU8887   AU        0.639444    0.611667    0.417222     0.007504
AU8888   AU        0.639444    0.639444    0.389444     0.007504
PD8889   PD        0.667222    0.611667    0.389444     0.007504
PD8890   PD        0.667222    0.639444    0.417222     0.007504
PD8891   PD        0.695000    0.611667    0.417222     0.007504
PD8892   PD        0.695000    0.639444    0.389444     0.007504
PD8893   PD        0.722778    0.611667    0.389444     0.007504
PD8894   PD        0.722778    0.639444    0.417222     0.007504
PD8923   PD        0.195000    0.667222    0.417222     0.007504
PD8925   PD        0.222778    0.667222    0.389444     0.007504
PD8926   PD        0.222778    0.695000    0.417222     0.007504
AU8927   AU        0.250556    0.667222    0.417222     0.007504
PD8928   PD        0.250556    0.695000    0.389444     0.007504
PD8929   PD        0.278333    0.667222    0.389444     0.007504
AU8930   AU        0.278333    0.695000    0.417222     0.007504
PD8931   PD        0.306111    0.667222    0.417222     0.007504
PD8932   PD        0.306111    0.695000    0.389444     0.007504
AU8933   AU        0.333889    0.667222    0.389444     0.007504
AU8934   AU        0.333889    0.695000    0.417222     0.007504
PD8935   PD        0.361667    0.667222    0.417222     0.007504
PD8936   PD        0.361667    0.695000    0.389444     0.007504
AU8937   AU        0.389444    0.667222    0.389444     0.007504
PD8938   PD        0.389444    0.695000    0.417222     0.007504
AU8939   AU        0.417222    0.667222    0.417222     0.007504
AU8940   AU        0.417222    0.695000    0.389444     0.007504
AU8941   AU        0.445000    0.667222    0.389444     0.007504
PD8942   PD        0.445000    0.695000    0.417222     0.007504
AU8943   AU        0.472778    0.667222    0.417222     0.007504
PD8944   PD        0.472778    0.695000    0.389444     0.007504
AU8945   AU        0.500556    0.667222    0.389444     0.007504
AU8946   AU        0.500556    0.695000    0.417222     0.007504
PD8947   PD        0.528333    0.667222    0.417222     0.007504
AU8948   AU        0.528333    0.695000    0.389444     0.007504
AU8949   AU        0.556111    0.667222    0.389444     0.007504
PD8950   PD        0.556111    0.695000    0.417222     0.007504
AU8951   AU        0.583889    0.667222    0.417222     0.007504
PD8952   PD        0.583889    0.695000    0.389444     0.007504
PD8953   PD        0.611667    0.667222    0.389444     0.007504
PD8954   PD        0.611667    0.695000    0.417222     0.007504
PD8955   PD        0.639444    0.667222    0.417222     0.007504
PD8956   PD        0.639444    0.695000    0.389444     0.007504
PD8957   PD        0.667222    0.667222    0.389444     0.007504
PD8958   PD        0.667222    0.695000    0.417222     0.007504
PD8959   PD        0.695000    0.667222    0.417222     0.007504
PD8995   PD        0.250556    0.722778    0.417222     0.007504
PD8997   PD        0.278333    0.722778    0.389444     0.007504
PD8999   PD        0.306111    0.722778    0.417222     0.007504
PD9000   PD        0.306111    0.750556    0.389444     0.007504
PD9001   PD        0.333889    0.722778    0.389444     0.007504
PD9002   PD        0.333889    0.750556    0.417222     0.007504
PD9003   PD        0.361667    0.722778    0.417222     0.007504
PD9004   PD        0.361667    0.750556    0.389444     0.007504
PD9005   PD        0.389444    0.722778    0.389444     0.007504
PD9006   PD        0.389444    0.750556    0.417222     0.007504
PD9007   PD        0.417222    0.722778    0.417222     0.007504
PD9008   PD        0.417222    0.750556    0.389444     0.007504
PD9009   PD        0.445000    0.722778    0.389444     0.007504
PD9010   PD        0.445000    0.750556    0.417222     0.007504
AU9011   AU        0.472778    0.722778    0.417222     0.007504
AU9012   AU        0.472778    0.750556    0.389444     0.007504
AU9013   AU        0.500556    0.722778    0.389444     0.007504
PD9014   PD        0.500556    0.750556    0.417222     0.007504
PD9015   PD        0.528333    0.722778    0.417222     0.007504
PD9016   PD        0.528333    0.750556    0.389444     0.007504
PD9017   PD        0.556111    0.722778    0.389444     0.007504
PD9018   PD        0.556111    0.750556    0.417222     0.007504
PD9019   PD        0.583889    0.722778    0.417222     0.007504
PD9020   PD        0.583889    0.750556    0.389444     0.007504
PD9021   PD        0.611667    0.722778    0.389444     0.007504
PD9023   PD        0.639444    0.722778    0.417222     0.007504
PD9075   PD        0.417222    0.778333    0.417222     0.007504
PD9077   PD        0.445000    0.778333    0.389444     0.007504
PD9079   PD        0.472778    0.778333    0.417222     0.007504
PD9408   PD        0.306111    0.139444    0.445000     0.007504
PD9410   PD        0.333889    0.139444    0.472778     0.007504
PD9412   PD        0.361667    0.139444    0.445000     0.007504
PD9413   PD        0.389444    0.111667    0.445000     0.007504
AU9414   AU        0.389444    0.139444    0.472778     0.007504
PD9415   PD        0.417222    0.111667    0.472778     0.007504
PD9416   PD        0.417222    0.139444    0.445000     0.007504
PD9417   PD        0.445000    0.111667    0.445000     0.007504
PD9418   PD        0.445000    0.139444    0.472778     0.007504
PD9419   PD        0.472778    0.111667    0.472778     0.007504
PD9420   PD        0.472778    0.139444    0.445000     0.007504
AU9421   AU        0.500556    0.111667    0.445000     0.007504
PD9422   PD        0.500556    0.139444    0.472778     0.007504
PD9424   PD        0.528333    0.139444    0.445000     0.007504
PD9426   PD        0.556111    0.139444    0.472778     0.007504
PD9428   PD        0.583889    0.139444    0.445000     0.007504
PD9470   PD        0.222778    0.195000    0.472778     0.007504
PD9471   PD        0.250556    0.167222    0.472778     0.007504
PD9472   PD        0.250556    0.195000    0.445000     0.007504
PD9473   PD        0.278333    0.167222    0.445000     0.007504
PD9474   PD        0.278333    0.195000    0.472778     0.007504
PD9475   PD        0.306111    0.167222    0.472778     0.007504
AU9476   AU        0.306111    0.195000    0.445000     0.007504
PD9477   PD        0.333889    0.167222    0.445000     0.007504
PD9478   PD        0.333889    0.195000    0.472778     0.007504
PD9479   PD        0.361667    0.167222    0.472778     0.007504
AU9480   AU        0.361667    0.195000    0.445000     0.007504
PD9481   PD        0.389444    0.167222    0.445000     0.007504
AU9482   AU        0.389444    0.195000    0.472778     0.007504
AU9483   AU        0.417222    0.167222    0.472778     0.007504
AU9484   AU        0.417222    0.195000    0.445000     0.007504
AU9485   AU        0.445000    0.167222    0.445000     0.007504
PD9486   PD        0.445000    0.195000    0.472778     0.007504
AU9487   AU        0.472778    0.167222    0.472778     0.007504
AU9488   AU        0.472778    0.195000    0.445000     0.007504
PD9489   PD        0.500556    0.167222    0.445000     0.007504
AU9490   AU        0.500556    0.195000    0.472778     0.007504
PD9491   PD        0.528333    0.167222    0.472778     0.007504
AU9492   AU        0.528333    0.195000    0.445000     0.007504
AU9493   AU        0.556111    0.167222    0.445000     0.007504
PD9494   PD        0.556111    0.195000    0.472778     0.007504
PD9495   PD        0.583889    0.167222    0.472778     0.007504
AU9496   AU        0.583889    0.195000    0.445000     0.007504
PD9497   PD        0.611667    0.167222    0.445000     0.007504
PD9498   PD        0.611667    0.195000    0.472778     0.007504
PD9499   PD        0.639444    0.167222    0.472778     0.007504
PD9500   PD        0.639444    0.195000    0.445000     0.007504
PD9502   PD        0.667222    0.195000    0.472778     0.007504
PD9534   PD        0.167222    0.250556    0.472778     0.007504
PD9535   PD        0.195000    0.222778    0.472778     0.007504
PD9536   PD        0.195000    0.250556    0.445000     0.007504
PD9537   PD        0.222778    0.222778    0.445000     0.007504
PD9538   PD        0.222778    0.250556    0.472778     0.007504
PD9539   PD        0.250556    0.222778    0.472778     0.007504
PD9540   PD        0.250556    0.250556    0.445000     0.007504
PD9541   PD        0.278333    0.222778    0.445000     0.007504
PD9542   PD        0.278333    0.250556    0.472778     0.007504
AU9543   AU        0.306111    0.222778    0.472778     0.007504
PD9544   PD        0.306111    0.250556    0.445000     0.007504
AU9545   AU        0.333889    0.222778    0.445000     0.007504
AU9546   AU        0.333889    0.250556    0.472778     0.007504
PD9547   PD        0.361667    0.222778    0.472778     0.007504
AU9548   AU        0.361667    0.250556    0.445000     0.007504
AU9549   AU        0.389444    0.222778    0.445000     0.007504
PD9550   PD        0.389444    0.250556    0.472778     0.007504
AU9551   AU        0.417222    0.222778    0.472778     0.007504
AU9552   AU        0.417222    0.250556    0.445000     0.007504
AU9553   AU        0.445000    0.222778    0.445000     0.007504
AU9554   AU        0.445000    0.250556    0.472778     0.007504
AU9555   AU        0.472778    0.222778    0.472778     0.007504
AU9556   AU        0.472778    0.250556    0.445000     0.007504
AU9557   AU        0.500556    0.222778    0.445000     0.007504
AU9558   AU        0.500556    0.250556    0.472778     0.007504
PD9559   PD        0.528333    0.222778    0.472778     0.007504
PD9560   PD        0.528333    0.250556    0.445000     0.007504
PD9561   PD        0.556111    0.222778    0.445000     0.007504
AU9562   AU        0.556111    0.250556    0.472778     0.007504
PD9563   PD        0.583889    0.222778    0.472778     0.007504
AU9564   AU        0.583889    0.250556    0.445000     0.007504
PD9565   PD        0.611667    0.222778    0.445000     0.007504
PD9566   PD        0.611667    0.250556    0.472778     0.007504
PD9567   PD        0.639444    0.222778    0.472778     0.007504
PD9568   PD        0.639444    0.250556    0.445000     0.007504
PD9569   PD        0.667222    0.222778    0.445000     0.007504
PD9570   PD        0.667222    0.250556    0.472778     0.007504
PD9571   PD        0.695000    0.222778    0.472778     0.007504
AU9572   AU        0.695000    0.250556    0.445000     0.007504
PD9574   PD        0.722778    0.250556    0.472778     0.007504
PD9600   PD        0.139444    0.306111    0.445000     0.007504
PD9601   PD        0.167222    0.278333    0.445000     0.007504
PD9602   PD        0.167222    0.306111    0.472778     0.007504
AU9603   AU        0.195000    0.278333    0.472778     0.007504
PD9604   PD        0.195000    0.306111    0.445000     0.007504
PD9605   PD        0.222778    0.278333    0.445000     0.007504
PD9606   PD        0.222778    0.306111    0.472778     0.007504
PD9607   PD        0.250556    0.278333    0.472778     0.007504
AU9608   AU        0.250556    0.306111    0.445000     0.007504
AU9609   AU        0.278333    0.278333    0.445000     0.007504
AU9610   AU        0.278333    0.306111    0.472778     0.007504
PD9611   PD        0.306111    0.278333    0.472778     0.007504
AU9612   AU        0.306111    0.306111    0.445000     0.007504
AU9613   AU        0.333889    0.278333    0.445000     0.007504
AU9614   AU        0.333889    0.306111    0.472778     0.007504
AU9615   AU        0.361667    0.278333    0.472778     0.007504
AU9616   AU        0.361667    0.306111    0.445000     0.007504
AU9617   AU        0.389444    0.278333    0.445000     0.007504
AU9618   AU        0.389444    0.306111    0.472778     0.007504
AU9619   AU        0.417222    0.278333    0.472778     0.007504
AU9620   AU        0.417222    0.306111    0.445000     0.007504
AU9621   AU        0.445000    0.278333    0.445000     0.007504
AU9622   AU        0.445000    0.306111    0.472778     0.007504
AU9623   AU        0.472778    0.278333    0.472778     0.007504
AU9624   AU        0.472778    0.306111    0.445000     0.007504
AU9625   AU        0.500556    0.278333    0.445000     0.007504
AU9626   AU        0.500556    0.306111    0.472778     0.007504
AU9627   AU        0.528333    0.278333    0.472778     0.007504
AU9628   AU        0.528333    0.306111    0.445000     0.007504
AU9629   AU        0.556111    0.278333    0.445000     0.007504
AU9630   AU        0.556111    0.306111    0.472778     0.007504
AU9631   AU        0.583889    0.278333    0.472778     0.007504
AU9632   AU        0.583889    0.306111    0.445000     0.007504
AU9633   AU        0.611667    0.278333    0.445000     0.007504
AU9634   AU        0.611667    0.306111    0.472778     0.007504
AU9635   AU        0.639444    0.278333    0.472778     0.007504
AU9636   AU        0.639444    0.306111    0.445000     0.007504
PD9637   PD        0.667222    0.278333    0.445000     0.007504
PD9638   PD        0.667222    0.306111    0.472778     0.007504
PD9639   PD        0.695000    0.278333    0.472778     0.007504
PD9640   PD        0.695000    0.306111    0.445000     0.007504
PD9641   PD        0.722778    0.278333    0.445000     0.007504
PD9642   PD        0.722778    0.306111    0.472778     0.007504
PD9644   PD        0.750556    0.306111    0.445000     0.007504
PD9667   PD        0.139444    0.333889    0.472778     0.007504
PD9668   PD        0.139444    0.361667    0.445000     0.007504
PD9669   PD        0.167222    0.333889    0.445000     0.007504
AU9670   AU        0.167222    0.361667    0.472778     0.007504
PD9671   PD        0.195000    0.333889    0.472778     0.007504
PD9672   PD        0.195000    0.361667    0.445000     0.007504
AU9673   AU        0.222778    0.333889    0.445000     0.007504
AU9674   AU        0.222778    0.361667    0.472778     0.007504
AU9675   AU        0.250556    0.333889    0.472778     0.007504
AU9676   AU        0.250556    0.361667    0.445000     0.007504
AU9677   AU        0.278333    0.333889    0.445000     0.007504
AU9678   AU        0.278333    0.361667    0.472778     0.007504
AU9679   AU        0.306111    0.333889    0.472778     0.007504
AU9680   AU        0.306111    0.361667    0.445000     0.007504
AU9681   AU        0.333889    0.333889    0.445000     0.007504
AU9682   AU        0.333889    0.361667    0.472778     0.007504
AU9683   AU        0.361667    0.333889    0.472778     0.007504
AU9684   AU        0.361667    0.361667    0.445000     0.007504
AU9685   AU        0.389444    0.333889    0.445000     0.007504
AU9686   AU        0.389444    0.361667    0.472778     0.007504
AU9687   AU        0.417222    0.333889    0.472778     0.007504
AU9688   AU        0.417222    0.361667    0.445000     0.007504
AU9689   AU        0.445000    0.333889    0.445000     0.007504
AU9690   AU        0.445000    0.361667    0.472778     0.007504
AU9691   AU        0.472778    0.333889    0.472778     0.007504
AU9692   AU        0.472778    0.361667    0.445000     0.007504
AU9693   AU        0.500556    0.333889    0.445000     0.007504
AU9694   AU        0.500556    0.361667    0.472778     0.007504
AU9695   AU        0.528333    0.333889    0.472778     0.007504
AU9696   AU        0.528333    0.361667    0.445000     0.007504
AU9697   AU        0.556111    0.333889    0.445000     0.007504
AU9698   AU        0.556111    0.361667    0.472778     0.007504
AU9699   AU        0.583889    0.333889    0.472778     0.007504
AU9700   AU        0.583889    0.361667    0.445000     0.007504
AU9701   AU        0.611667    0.333889    0.445000     0.007504
AU9702   AU        0.611667    0.361667    0.472778     0.007504
AU9703   AU        0.639444    0.333889    0.472778     0.007504
AU9704   AU        0.639444    0.361667    0.445000     0.007504
AU9705   AU        0.667222    0.333889    0.445000     0.007504
AU9706   AU        0.667222    0.361667    0.472778     0.007504
AU9707   AU        0.695000    0.333889    0.472778     0.007504
AU9708   AU        0.695000    0.361667    0.445000     0.007504
PD9709   PD        0.722778    0.333889    0.445000     0.007504
PD9710   PD        0.722778    0.361667    0.472778     0.007504
PD9711   PD        0.750556    0.333889    0.472778     0.007504
PD9712   PD        0.750556    0.361667    0.445000     0.007504
PD9733   PD        0.111667    0.389444    0.445000     0.007504
PD9734   PD        0.111667    0.417222    0.472778     0.007504
PD9735   PD        0.139444    0.389444    0.472778     0.007504
PD9736   PD        0.139444    0.417222    0.445000     0.007504
PD9737   PD        0.167222    0.389444    0.445000     0.007504
PD9738   PD        0.167222    0.417222    0.472778     0.007504
PD9739   PD        0.195000    0.389444    0.472778     0.007504
AU9740   AU        0.195000    0.417222    0.445000     0.007504
AU9741   AU        0.222778    0.389444    0.445000     0.007504
PD9742   PD        0.222778    0.417222    0.472778     0.007504
AU9743   AU        0.250556    0.389444    0.472778     0.007504
AU9744   AU        0.250556    0.417222    0.445000     0.007504
AU9745   AU        0.278333    0.389444    0.445000     0.007504
AU9746   AU        0.278333    0.417222    0.472778     0.007504
AU9747   AU        0.306111    0.389444    0.472778     0.007504
AU9748   AU        0.306111    0.417222    0.445000     0.007504
AU9749   AU        0.333889    0.389444    0.445000     0.007504
AU9750   AU        0.333889    0.417222    0.472778     0.007504
AU9751   AU        0.361667    0.389444    0.472778     0.007504
AU9752   AU        0.361667    0.417222    0.445000     0.007504
AU9753   AU        0.389444    0.389444    0.445000     0.007504
AU9754   AU        0.389444    0.417222    0.472778     0.007504
AU9755   AU        0.417222    0.389444    0.472778     0.007504
AU9756   AU        0.417222    0.417222    0.445000     0.007504
AU9757   AU        0.445000    0.389444    0.445000     0.007504
AU9758   AU        0.445000    0.417222    0.472778     0.007504
AU9759   AU        0.472778    0.389444    0.472778     0.007504
AU9760   AU        0.472778    0.417222    0.445000     0.007504
AU9761   AU        0.500556    0.389444    0.445000     0.007504
AU9762   AU        0.500556    0.417222    0.472778     0.007504
AU9763   AU        0.528333    0.389444    0.472778     0.007504
AU9764   AU        0.528333    0.417222    0.445000     0.007504
AU9765   AU        0.556111    0.389444    0.445000     0.007504
AU9766   AU        0.556111    0.417222    0.472778     0.007504
AU9767   AU        0.583889    0.389444    0.472778     0.007504
AU9768   AU        0.583889    0.417222    0.445000     0.007504
AU9769   AU        0.611667    0.389444    0.445000     0.007504
AU9770   AU        0.611667    0.417222    0.472778     0.007504
AU9771   AU        0.639444    0.389444    0.472778     0.007504
AU9772   AU        0.639444    0.417222    0.445000     0.007504
AU9773   AU        0.667222    0.389444    0.445000     0.007504
AU9774   AU        0.667222    0.417222    0.472778     0.007504
AU9775   AU        0.695000    0.389444    0.472778     0.007504
AU9776   AU        0.695000    0.417222    0.445000     0.007504
PD9777   PD        0.722778    0.389444    0.445000     0.007504
PD9778   PD        0.722778    0.417222    0.472778     0.007504
PD9779   PD        0.750556    0.389444    0.472778     0.007504
PD9780   PD        0.750556    0.417222    0.445000     0.007504
PD9781   PD        0.778333    0.389444    0.445000     0.007504
PD9782   PD        0.778333    0.417222    0.472778     0.007504
PD9801   PD        0.111667    0.445000    0.445000     0.007504
PD9802   PD        0.111667    0.472778    0.472778     0.007504
PD9803   PD        0.139444    0.445000    0.472778     0.007504
AU9804   AU        0.139444    0.472778    0.445000     0.007504
AU9805   AU        0.167222    0.445000    0.445000     0.007504
AU9806   AU        0.167222    0.472778    0.472778     0.007504
PD9807   PD        0.195000    0.445000    0.472778     0.007504
PD9808   PD        0.195000    0.472778    0.445000     0.007504
AU9809   AU        0.222778    0.445000    0.445000     0.007504
AU9810   AU        0.222778    0.472778    0.472778     0.007504
AU9811   AU        0.250556    0.445000    0.472778     0.007504
AU9812   AU        0.250556    0.472778    0.445000     0.007504
AU9813   AU        0.278333    0.445000    0.445000     0.007504
AU9814   AU        0.278333    0.472778    0.472778     0.007504
AU9815   AU        0.306111    0.445000    0.472778     0.007504
AU9816   AU        0.306111    0.472778    0.445000     0.007504
AU9817   AU        0.333889    0.445000    0.445000     0.007504
AU9818   AU        0.333889    0.472778    0.472778     0.007504
AU9819   AU        0.361667    0.445000    0.472778     0.007504
AU9820   AU        0.361667    0.472778    0.445000     0.007504
AU9821   AU        0.389444    0.445000    0.445000     0.007504
AU9822   AU        0.389444    0.472778    0.472778     0.007504
AU9823   AU        0.417222    0.445000    0.472778     0.007504
AU9824   AU        0.417222    0.472778    0.445000     0.007504
PD9825   PD        0.445000    0.445000    0.445000     0.007504
AU9826   AU        0.445000    0.472778    0.472778     0.007504
AU9827   AU        0.472778    0.445000    0.472778     0.007504
AU9828   AU        0.472778    0.472778    0.445000     0.007504
AU9829   AU        0.500556    0.445000    0.445000     0.007504
AU9830   AU        0.500556    0.472778    0.472778     0.007504
AU9831   AU        0.528333    0.445000    0.472778     0.007504
AU9832   AU        0.528333    0.472778    0.445000     0.007504
AU9833   AU        0.556111    0.445000    0.445000     0.007504
AU9834   AU        0.556111    0.472778    0.472778     0.007504
AU9835   AU        0.583889    0.445000    0.472778     0.007504
AU9836   AU        0.583889    0.472778    0.445000     0.007504
AU9837   AU        0.611667    0.445000    0.445000     0.007504
AU9838   AU        0.611667    0.472778    0.472778     0.007504
AU9839   AU        0.639444    0.445000    0.472778     0.007504
AU9840   AU        0.639444    0.472778    0.445000     0.007504
AU9841   AU        0.667222    0.445000    0.445000     0.007504
PD9842   PD        0.667222    0.472778    0.472778     0.007504
PD9843   PD        0.695000    0.445000    0.472778     0.007504
PD9844   PD        0.695000    0.472778    0.445000     0.007504
AU9845   AU        0.722778    0.445000    0.445000     0.007504
PD9846   PD        0.722778    0.472778    0.472778     0.007504
PD9847   PD        0.750556    0.445000    0.472778     0.007504
PD9848   PD        0.750556    0.472778    0.445000     0.007504
PD9849   PD        0.778333    0.445000    0.445000     0.007504
PD9850   PD        0.778333    0.472778    0.472778     0.007504
PD9869   PD        0.111667    0.500556    0.445000     0.007504
PD9871   PD        0.139444    0.500556    0.472778     0.007504
AU9872   AU        0.139444    0.528333    0.445000     0.007504
AU9873   AU        0.167222    0.500556    0.445000     0.007504
PD9874   PD        0.167222    0.528333    0.472778     0.007504
AU9875   AU        0.195000    0.500556    0.472778     0.007504
PD9876   PD        0.195000    0.528333    0.445000     0.007504
AU9877   AU        0.222778    0.500556    0.445000     0.007504
AU9878   AU        0.222778    0.528333    0.472778     0.007504
AU9879   AU        0.250556    0.500556    0.472778     0.007504
PD9880   PD        0.250556    0.528333    0.445000     0.007504
AU9881   AU        0.278333    0.500556    0.445000     0.007504
AU9882   AU        0.278333    0.528333    0.472778     0.007504
AU9883   AU        0.306111    0.500556    0.472778     0.007504
AU9884   AU        0.306111    0.528333    0.445000     0.007504
AU9885   AU        0.333889    0.500556    0.445000     0.007504
AU9886   AU        0.333889    0.528333    0.472778     0.007504
AU9887   AU        0.361667    0.500556    0.472778     0.007504
AU9888   AU        0.361667    0.528333    0.445000     0.007504
AU9889   AU        0.389444    0.500556    0.445000     0.007504
AU9890   AU        0.389444    0.528333    0.472778     0.007504
AU9891   AU        0.417222    0.500556    0.472778     0.007504
AU9892   AU        0.417222    0.528333    0.445000     0.007504
AU9893   AU        0.445000    0.500556    0.445000     0.007504
AU9894   AU        0.445000    0.528333    0.472778     0.007504
AU9895   AU        0.472778    0.500556    0.472778     0.007504
AU9896   AU        0.472778    0.528333    0.445000     0.007504
AU9897   AU        0.500556    0.500556    0.445000     0.007504
AU9898   AU        0.500556    0.528333    0.472778     0.007504
AU9899   AU        0.528333    0.500556    0.472778     0.007504
AU9900   AU        0.528333    0.528333    0.445000     0.007504
AU9901   AU        0.556111    0.500556    0.445000     0.007504
AU9902   AU        0.556111    0.528333    0.472778     0.007504
AU9903   AU        0.583889    0.500556    0.472778     0.007504
AU9904   AU        0.583889    0.528333    0.445000     0.007504
AU9905   AU        0.611667    0.500556    0.445000     0.007504
AU9906   AU        0.611667    0.528333    0.472778     0.007504
AU9907   AU        0.639444    0.500556    0.472778     0.007504
AU9908   AU        0.639444    0.528333    0.445000     0.007504
AU9909   AU        0.667222    0.500556    0.445000     0.007504
AU9910   AU        0.667222    0.528333    0.472778     0.007504
PD9911   PD        0.695000    0.500556    0.472778     0.007504
PD9912   PD        0.695000    0.528333    0.445000     0.007504
PD9913   PD        0.722778    0.500556    0.445000     0.007504
PD9914   PD        0.722778    0.528333    0.472778     0.007504
PD9915   PD        0.750556    0.500556    0.472778     0.007504
AU9916   AU        0.750556    0.528333    0.445000     0.007504
PD9917   PD        0.778333    0.500556    0.445000     0.007504
PD9939   PD        0.139444    0.556111    0.472778     0.007504
PD9940   PD        0.139444    0.583889    0.445000     0.007504
PD9941   PD        0.167222    0.556111    0.445000     0.007504
PD9942   PD        0.167222    0.583889    0.472778     0.007504
AU9943   AU        0.195000    0.556111    0.472778     0.007504
PD9944   PD        0.195000    0.583889    0.445000     0.007504
AU9945   AU        0.222778    0.556111    0.445000     0.007504
AU9946   AU        0.222778    0.583889    0.472778     0.007504
PD9947   PD        0.250556    0.556111    0.472778     0.007504
AU9948   AU        0.250556    0.583889    0.445000     0.007504
AU9949   AU        0.278333    0.556111    0.445000     0.007504
AU9950   AU        0.278333    0.583889    0.472778     0.007504
AU9951   AU        0.306111    0.556111    0.472778     0.007504
AU9952   AU        0.306111    0.583889    0.445000     0.007504
AU9953   AU        0.333889    0.556111    0.445000     0.007504
AU9954   AU        0.333889    0.583889    0.472778     0.007504
AU9955   AU        0.361667    0.556111    0.472778     0.007504
AU9956   AU        0.361667    0.583889    0.445000     0.007504
AU9957   AU        0.389444    0.556111    0.445000     0.007504
AU9958   AU        0.389444    0.583889    0.472778     0.007504
AU9959   AU        0.417222    0.556111    0.472778     0.007504
AU9960   AU        0.417222    0.583889    0.445000     0.007504
AU9961   AU        0.445000    0.556111    0.445000     0.007504
AU9962   AU        0.445000    0.583889    0.472778     0.007504
AU9963   AU        0.472778    0.556111    0.472778     0.007504
AU9964   AU        0.472778    0.583889    0.445000     0.007504
AU9965   AU        0.500556    0.556111    0.445000     0.007504
AU9966   AU        0.500556    0.583889    0.472778     0.007504
AU9967   AU        0.528333    0.556111    0.472778     0.007504
AU9968   AU        0.528333    0.583889    0.445000     0.007504
AU9969   AU        0.556111    0.556111    0.445000     0.007504
AU9970   AU        0.556111    0.583889    0.472778     0.007504
AU9971   AU        0.583889    0.556111    0.472778     0.007504
AU9972   AU        0.583889    0.583889    0.445000     0.007504
AU9973   AU        0.611667    0.556111    0.445000     0.007504
PD9974   PD        0.611667    0.583889    0.472778     0.007504
AU9975   AU        0.639444    0.556111    0.472778     0.007504
AU9976   AU        0.639444    0.583889    0.445000     0.007504
AU9977   AU        0.667222    0.556111    0.445000     0.007504
PD9978   PD        0.667222    0.583889    0.472778     0.007504
AU9979   AU        0.695000    0.556111    0.472778     0.007504
PD9980   PD        0.695000    0.583889    0.445000     0.007504
PD9981   PD        0.722778    0.556111    0.445000     0.007504
PD9982   PD        0.722778    0.583889    0.472778     0.007504
PD9983   PD        0.750556    0.556111    0.472778     0.007504
PD9984   PD        0.750556    0.583889    0.445000     0.007504
PD10009   PD        0.167222    0.611667    0.445000     0.007504
PD10010   PD        0.167222    0.639444    0.472778     0.007504
PD10011   PD        0.195000    0.611667    0.472778     0.007504
PD10012   PD        0.195000    0.639444    0.445000     0.007504
AU10013   AU        0.222778    0.611667    0.445000     0.007504
PD10014   PD        0.222778    0.639444    0.472778     0.007504
AU10015   AU        0.250556    0.611667    0.472778     0.007504
AU10016   AU        0.250556    0.639444    0.445000     0.007504
AU10017   AU        0.278333    0.611667    0.445000     0.007504
PD10018   PD        0.278333    0.639444    0.472778     0.007504
AU10019   AU        0.306111    0.611667    0.472778     0.007504
AU10020   AU        0.306111    0.639444    0.445000     0.007504
AU10021   AU        0.333889    0.611667    0.445000     0.007504
AU10022   AU        0.333889    0.639444    0.472778     0.007504
AU10023   AU        0.361667    0.611667    0.472778     0.007504
AU10024   AU        0.361667    0.639444    0.445000     0.007504
AU10025   AU        0.389444    0.611667    0.445000     0.007504
AU10026   AU        0.389444    0.639444    0.472778     0.007504
AU10027   AU        0.417222    0.611667    0.472778     0.007504
AU10028   AU        0.417222    0.639444    0.445000     0.007504
AU10029   AU        0.445000    0.611667    0.445000     0.007504
AU10030   AU        0.445000    0.639444    0.472778     0.007504
AU10031   AU        0.472778    0.611667    0.472778     0.007504
AU10032   AU        0.472778    0.639444    0.445000     0.007504
AU10033   AU        0.500556    0.611667    0.445000     0.007504
AU10034   AU        0.500556    0.639444    0.472778     0.007504
PD10035   PD        0.528333    0.611667    0.472778     0.007504
AU10036   AU        0.528333    0.639444    0.445000     0.007504
AU10037   AU        0.556111    0.611667    0.445000     0.007504
AU10038   AU        0.556111    0.639444    0.472778     0.007504
AU10039   AU        0.583889    0.611667    0.472778     0.007504
AU10040   AU        0.583889    0.639444    0.445000     0.007504
AU10041   AU        0.611667    0.611667    0.445000     0.007504
PD10042   PD        0.611667    0.639444    0.472778     0.007504
AU10043   AU        0.639444    0.611667    0.472778     0.007504
PD10044   PD        0.639444    0.639444    0.445000     0.007504
PD10045   PD        0.667222    0.611667    0.445000     0.007504
PD10046   PD        0.667222    0.639444    0.472778     0.007504
AU10047   AU        0.695000    0.611667    0.472778     0.007504
PD10048   PD        0.695000    0.639444    0.445000     0.007504
PD10049   PD        0.722778    0.611667    0.445000     0.007504
PD10050   PD        0.722778    0.639444    0.472778     0.007504
PD10079   PD        0.195000    0.667222    0.472778     0.007504
PD10081   PD        0.222778    0.667222    0.445000     0.007504
PD10082   PD        0.222778    0.695000    0.472778     0.007504
PD10083   PD        0.250556    0.667222    0.472778     0.007504
AU10084   AU        0.250556    0.695000    0.445000     0.007504
PD10085   PD        0.278333    0.667222    0.445000     0.007504
PD10086   PD        0.278333    0.695000    0.472778     0.007504
PD10087   PD        0.306111    0.667222    0.472778     0.007504
PD10088   PD        0.306111    0.695000    0.445000     0.007504
AU10089   AU        0.333889    0.667222    0.445000     0.007504
PD10090   PD        0.333889    0.695000    0.472778     0.007504
AU10091   AU        0.361667    0.667222    0.472778     0.007504
AU10092   AU        0.361667    0.695000    0.445000     0.007504
PD10093   PD        0.389444    0.667222    0.445000     0.007504
PD10094   PD        0.389444    0.695000    0.472778     0.007504
AU10095   AU        0.417222    0.667222    0.472778     0.007504
PD10096   PD        0.417222    0.695000    0.445000     0.007504
AU10097   AU        0.445000    0.667222    0.445000     0.007504
PD10098   PD        0.445000    0.695000    0.472778     0.007504
AU10099   AU        0.472778    0.667222    0.472778     0.007504
PD10100   PD        0.472778    0.695000    0.445000     0.007504
AU10101   AU        0.500556    0.667222    0.445000     0.007504
PD10102   PD        0.500556    0.695000    0.472778     0.007504
PD10103   PD        0.528333    0.667222    0.472778     0.007504
PD10104   PD        0.528333    0.695000    0.445000     0.007504
PD10105   PD        0.556111    0.667222    0.445000     0.007504
AU10106   AU        0.556111    0.695000    0.472778     0.007504
AU10107   AU        0.583889    0.667222    0.472778     0.007504
PD10108   PD        0.583889    0.695000    0.445000     0.007504
AU10109   AU        0.611667    0.667222    0.445000     0.007504
PD10110   PD        0.611667    0.695000    0.472778     0.007504
PD10111   PD        0.639444    0.667222    0.472778     0.007504
PD10112   PD        0.639444    0.695000    0.445000     0.007504
PD10113   PD        0.667222    0.667222    0.445000     0.007504
PD10114   PD        0.667222    0.695000    0.472778     0.007504
PD10115   PD        0.695000    0.667222    0.472778     0.007504
PD10151   PD        0.250556    0.722778    0.472778     0.007504
PD10153   PD        0.278333    0.722778    0.445000     0.007504
PD10155   PD        0.306111    0.722778    0.472778     0.007504
PD10156   PD        0.306111    0.750556    0.445000     0.007504
PD10157   PD        0.333889    0.722778    0.445000     0.007504
PD10158   PD        0.333889    0.750556    0.472778     0.007504
AU10159   AU        0.361667    0.722778    0.472778     0.007504
PD10160   PD        0.361667    0.750556    0.445000     0.007504
AU10161   AU        0.389444    0.722778    0.445000     0.007504
PD10162   PD        0.389444    0.750556    0.472778     0.007504
PD10163   PD        0.417222    0.722778    0.472778     0.007504
PD10164   PD        0.417222    0.750556    0.445000     0.007504
PD10165   PD        0.445000    0.722778    0.445000     0.007504
PD10166   PD        0.445000    0.750556    0.472778     0.007504
PD10167   PD        0.472778    0.722778    0.472778     0.007504
PD10168   PD        0.472778    0.750556    0.445000     0.007504
AU10169   AU        0.500556    0.722778    0.445000     0.007504
PD10170   PD        0.500556    0.750556    0.472778     0.007504
PD10171   PD        0.528333    0.722778    0.472778     0.007504
PD10172   PD        0.528333    0.750556    0.445000     0.007504
PD10173   PD        0.556111    0.722778    0.445000     0.007504
PD10174   PD        0.556111    0.750556    0.472778     0.007504
PD10175   PD        0.583889    0.722778    0.472778     0.007504
PD10176   PD        0.583889    0.750556    0.445000     0.007504
PD10177   PD        0.611667    0.722778    0.445000     0.007504
PD10179   PD        0.639444    0.722778    0.472778     0.007504
PD10229   PD        0.389444    0.778333    0.445000     0.007504
PD10231   PD        0.417222    0.778333    0.472778     0.007504
PD10233   PD        0.445000    0.778333    0.445000     0.007504
PD10235   PD        0.472778    0.778333    0.472778     0.007504
PD10237   PD        0.500556    0.778333    0.445000     0.007504
PD10564   PD        0.306111    0.139444    0.500556     0.007504
PD10566   PD        0.333889    0.139444    0.528333     0.007504
PD10568   PD        0.361667    0.139444    0.500556     0.007504
PD10570   PD        0.389444    0.139444    0.528333     0.007504
PD10572   PD        0.417222    0.139444    0.500556     0.007504
PD10573   PD        0.445000    0.111667    0.500556     0.007504
PD10574   PD        0.445000    0.139444    0.528333     0.007504
PD10576   PD        0.472778    0.139444    0.500556     0.007504
PD10578   PD        0.500556    0.139444    0.528333     0.007504
PD10580   PD        0.528333    0.139444    0.500556     0.007504
PD10582   PD        0.556111    0.139444    0.528333     0.007504
PD10584   PD        0.583889    0.139444    0.500556     0.007504
PD10628   PD        0.250556    0.195000    0.500556     0.007504
PD10629   PD        0.278333    0.167222    0.500556     0.007504
PD10630   PD        0.278333    0.195000    0.528333     0.007504
PD10631   PD        0.306111    0.167222    0.528333     0.007504
PD10632   PD        0.306111    0.195000    0.500556     0.007504
PD10633   PD        0.333889    0.167222    0.500556     0.007504
PD10634   PD        0.333889    0.195000    0.528333     0.007504
PD10635   PD        0.361667    0.167222    0.528333     0.007504
PD10636   PD        0.361667    0.195000    0.500556     0.007504
AU10637   AU        0.389444    0.167222    0.500556     0.007504
PD10638   PD        0.389444    0.195000    0.528333     0.007504
PD10639   PD        0.417222    0.167222    0.528333     0.007504
AU10640   AU        0.417222    0.195000    0.500556     0.007504
PD10641   PD        0.445000    0.167222    0.500556     0.007504
AU10642   AU        0.445000    0.195000    0.528333     0.007504
AU10643   AU        0.472778    0.167222    0.528333     0.007504
PD10644   PD        0.472778    0.195000    0.500556     0.007504
PD10645   PD        0.500556    0.167222    0.500556     0.007504
PD10646   PD        0.500556    0.195000    0.528333     0.007504
PD10647   PD        0.528333    0.167222    0.528333     0.007504
AU10648   AU        0.528333    0.195000    0.500556     0.007504
PD10649   PD        0.556111    0.167222    0.500556     0.007504
AU10650   AU        0.556111    0.195000    0.528333     0.007504
PD10651   PD        0.583889    0.167222    0.528333     0.007504
PD10652   PD        0.583889    0.195000    0.500556     0.007504
PD10653   PD        0.611667    0.167222    0.500556     0.007504
PD10654   PD        0.611667    0.195000    0.528333     0.007504
PD10656   PD        0.639444    0.195000    0.500556     0.007504
PD10692   PD        0.195000    0.250556    0.500556     0.007504
PD10693   PD        0.222778    0.222778    0.500556     0.007504
PD10694   PD        0.222778    0.250556    0.528333     0.007504
PD10695   PD        0.250556    0.222778    0.528333     0.007504
AU10696   AU        0.250556    0.250556    0.500556     0.007504
PD10697   PD        0.278333    0.222778    0.500556     0.007504
PD10698   PD        0.278333    0.250556    0.528333     0.007504
PD10699   PD        0.306111    0.222778    0.528333     0.007504
AU10700   AU        0.306111    0.250556    0.500556     0.007504
AU10701   AU        0.333889    0.222778    0.500556     0.007504
PD10702   PD        0.333889    0.250556    0.528333     0.007504
AU10703   AU        0.361667    0.222778    0.528333     0.007504
AU10704   AU        0.361667    0.250556    0.500556     0.007504
AU10705   AU        0.389444    0.222778    0.500556     0.007504
AU10706   AU        0.389444    0.250556    0.528333     0.007504
AU10707   AU        0.417222    0.222778    0.528333     0.007504
AU10708   AU        0.417222    0.250556    0.500556     0.007504
AU10709   AU        0.445000    0.222778    0.500556     0.007504
AU10710   AU        0.445000    0.250556    0.528333     0.007504
AU10711   AU        0.472778    0.222778    0.528333     0.007504
AU10712   AU        0.472778    0.250556    0.500556     0.007504
AU10713   AU        0.500556    0.222778    0.500556     0.007504
PD10714   PD        0.500556    0.250556    0.528333     0.007504
PD10715   PD        0.528333    0.222778    0.528333     0.007504
AU10716   AU        0.528333    0.250556    0.500556     0.007504
AU10717   AU        0.556111    0.222778    0.500556     0.007504
AU10718   AU        0.556111    0.250556    0.528333     0.007504
PD10719   PD        0.583889    0.222778    0.528333     0.007504
PD10720   PD        0.583889    0.250556    0.500556     0.007504
AU10721   AU        0.611667    0.222778    0.500556     0.007504
AU10722   AU        0.611667    0.250556    0.528333     0.007504
PD10723   PD        0.639444    0.222778    0.528333     0.007504
AU10724   AU        0.639444    0.250556    0.500556     0.007504
PD10725   PD        0.667222    0.222778    0.500556     0.007504
PD10726   PD        0.667222    0.250556    0.528333     0.007504
PD10728   PD        0.695000    0.250556    0.500556     0.007504
PD10756   PD        0.139444    0.306111    0.500556     0.007504
PD10757   PD        0.167222    0.278333    0.500556     0.007504
PD10758   PD        0.167222    0.306111    0.528333     0.007504
PD10759   PD        0.195000    0.278333    0.528333     0.007504
PD10760   PD        0.195000    0.306111    0.500556     0.007504
AU10761   AU        0.222778    0.278333    0.500556     0.007504
AU10762   AU        0.222778    0.306111    0.528333     0.007504
AU10763   AU        0.250556    0.278333    0.528333     0.007504
AU10764   AU        0.250556    0.306111    0.500556     0.007504
PD10765   PD        0.278333    0.278333    0.500556     0.007504
AU10766   AU        0.278333    0.306111    0.528333     0.007504
AU10767   AU        0.306111    0.278333    0.528333     0.007504
AU10768   AU        0.306111    0.306111    0.500556     0.007504
AU10769   AU        0.333889    0.278333    0.500556     0.007504
AU10770   AU        0.333889    0.306111    0.528333     0.007504
AU10771   AU        0.361667    0.278333    0.528333     0.007504
AU10772   AU        0.361667    0.306111    0.500556     0.007504
AU10773   AU        0.389444    0.278333    0.500556     0.007504
AU10774   AU        0.389444    0.306111    0.528333     0.007504
AU10775   AU        0.417222    0.278333    0.528333     0.007504
AU10776   AU        0.417222    0.306111    0.500556     0.007504
AU10777   AU        0.445000    0.278333    0.500556     0.007504
AU10778   AU        0.445000    0.306111    0.528333     0.007504
AU10779   AU        0.472778    0.278333    0.528333     0.007504
AU10780   AU        0.472778    0.306111    0.500556     0.007504
AU10781   AU        0.500556    0.278333    0.500556     0.007504
AU10782   AU        0.500556    0.306111    0.528333     0.007504
AU10783   AU        0.528333    0.278333    0.528333     0.007504
AU10784   AU        0.528333    0.306111    0.500556     0.007504
AU10785   AU        0.556111    0.278333    0.500556     0.007504
AU10786   AU        0.556111    0.306111    0.528333     0.007504
AU10787   AU        0.583889    0.278333    0.528333     0.007504
AU10788   AU        0.583889    0.306111    0.500556     0.007504
AU10789   AU        0.611667    0.278333    0.500556     0.007504
PD10790   PD        0.611667    0.306111    0.528333     0.007504
AU10791   AU        0.639444    0.278333    0.528333     0.007504
PD10792   PD        0.639444    0.306111    0.500556     0.007504
AU10793   AU        0.667222    0.278333    0.500556     0.007504
AU10794   AU        0.667222    0.306111    0.528333     0.007504
PD10795   PD        0.695000    0.278333    0.528333     0.007504
PD10796   PD        0.695000    0.306111    0.500556     0.007504
PD10797   PD        0.722778    0.278333    0.500556     0.007504
PD10798   PD        0.722778    0.306111    0.528333     0.007504
PD10800   PD        0.750556    0.306111    0.500556     0.007504
PD10823   PD        0.139444    0.333889    0.528333     0.007504
PD10824   PD        0.139444    0.361667    0.500556     0.007504
PD10825   PD        0.167222    0.333889    0.500556     0.007504
PD10826   PD        0.167222    0.361667    0.528333     0.007504
AU10827   AU        0.195000    0.333889    0.528333     0.007504
AU10828   AU        0.195000    0.361667    0.500556     0.007504
AU10829   AU        0.222778    0.333889    0.500556     0.007504
PD10830   PD        0.222778    0.361667    0.528333     0.007504
AU10831   AU        0.250556    0.333889    0.528333     0.007504
PD10832   PD        0.250556    0.361667    0.500556     0.007504
AU10833   AU        0.278333    0.333889    0.500556     0.007504
AU10834   AU        0.278333    0.361667    0.528333     0.007504
AU10835   AU        0.306111    0.333889    0.528333     0.007504
AU10836   AU        0.306111    0.361667    0.500556     0.007504
AU10837   AU        0.333889    0.333889    0.500556     0.007504
AU10838   AU        0.333889    0.361667    0.528333     0.007504
AU10839   AU        0.361667    0.333889    0.528333     0.007504
AU10840   AU        0.361667    0.361667    0.500556     0.007504
AU10841   AU        0.389444    0.333889    0.500556     0.007504
AU10842   AU        0.389444    0.361667    0.528333     0.007504
AU10843   AU        0.417222    0.333889    0.528333     0.007504
AU10844   AU        0.417222    0.361667    0.500556     0.007504
AU10845   AU        0.445000    0.333889    0.500556     0.007504
AU10846   AU        0.445000    0.361667    0.528333     0.007504
AU10847   AU        0.472778    0.333889    0.528333     0.007504
AU10848   AU        0.472778    0.361667    0.500556     0.007504
AU10849   AU        0.500556    0.333889    0.500556     0.007504
AU10850   AU        0.500556    0.361667    0.528333     0.007504
AU10851   AU        0.528333    0.333889    0.528333     0.007504
AU10852   AU        0.528333    0.361667    0.500556     0.007504
AU10853   AU        0.556111    0.333889    0.500556     0.007504
AU10854   AU        0.556111    0.361667    0.528333     0.007504
AU10855   AU        0.583889    0.333889    0.528333     0.007504
AU10856   AU        0.583889    0.361667    0.500556     0.007504
AU10857   AU        0.611667    0.333889    0.500556     0.007504
AU10858   AU        0.611667    0.361667    0.528333     0.007504
AU10859   AU        0.639444    0.333889    0.528333     0.007504
AU10860   AU        0.639444    0.361667    0.500556     0.007504
PD10861   PD        0.667222    0.333889    0.500556     0.007504
AU10862   AU        0.667222    0.361667    0.528333     0.007504
PD10863   PD        0.695000    0.333889    0.528333     0.007504
AU10864   AU        0.695000    0.361667    0.500556     0.007504
PD10865   PD        0.722778    0.333889    0.500556     0.007504
PD10866   PD        0.722778    0.361667    0.528333     0.007504
AU10867   AU        0.750556    0.333889    0.528333     0.007504
PD10868   PD        0.750556    0.361667    0.500556     0.007504
PD10891   PD        0.139444    0.389444    0.528333     0.007504
PD10892   PD        0.139444    0.417222    0.500556     0.007504
PD10893   PD        0.167222    0.389444    0.500556     0.007504
PD10894   PD        0.167222    0.417222    0.528333     0.007504
AU10895   AU        0.195000    0.389444    0.528333     0.007504
PD10896   PD        0.195000    0.417222    0.500556     0.007504
AU10897   AU        0.222778    0.389444    0.500556     0.007504
AU10898   AU        0.222778    0.417222    0.528333     0.007504
AU10899   AU        0.250556    0.389444    0.528333     0.007504
AU10900   AU        0.250556    0.417222    0.500556     0.007504
AU10901   AU        0.278333    0.389444    0.500556     0.007504
AU10902   AU        0.278333    0.417222    0.528333     0.007504
AU10903   AU        0.306111    0.389444    0.528333     0.007504
AU10904   AU        0.306111    0.417222    0.500556     0.007504
AU10905   AU        0.333889    0.389444    0.500556     0.007504
AU10906   AU        0.333889    0.417222    0.528333     0.007504
AU10907   AU        0.361667    0.389444    0.528333     0.007504
AU10908   AU        0.361667    0.417222    0.500556     0.007504
AU10909   AU        0.389444    0.389444    0.500556     0.007504
AU10910   AU        0.389444    0.417222    0.528333     0.007504
AU10911   AU        0.417222    0.389444    0.528333     0.007504
AU10912   AU        0.417222    0.417222    0.500556     0.007504
AU10913   AU        0.445000    0.389444    0.500556     0.007504
AU10914   AU        0.445000    0.417222    0.528333     0.007504
AU10915   AU        0.472778    0.389444    0.528333     0.007504
AU10916   AU        0.472778    0.417222    0.500556     0.007504
AU10917   AU        0.500556    0.389444    0.500556     0.007504
AU10918   AU        0.500556    0.417222    0.528333     0.007504
AU10919   AU        0.528333    0.389444    0.528333     0.007504
AU10920   AU        0.528333    0.417222    0.500556     0.007504
AU10921   AU        0.556111    0.389444    0.500556     0.007504
AU10922   AU        0.556111    0.417222    0.528333     0.007504
AU10923   AU        0.583889    0.389444    0.528333     0.007504
AU10924   AU        0.583889    0.417222    0.500556     0.007504
AU10925   AU        0.611667    0.389444    0.500556     0.007504
AU10926   AU        0.611667    0.417222    0.528333     0.007504
AU10927   AU        0.639444    0.389444    0.528333     0.007504
AU10928   AU        0.639444    0.417222    0.500556     0.007504
AU10929   AU        0.667222    0.389444    0.500556     0.007504
AU10930   AU        0.667222    0.417222    0.528333     0.007504
PD10931   PD        0.695000    0.389444    0.528333     0.007504
PD10932   PD        0.695000    0.417222    0.500556     0.007504
PD10933   PD        0.722778    0.389444    0.500556     0.007504
PD10934   PD        0.722778    0.417222    0.528333     0.007504
PD10935   PD        0.750556    0.389444    0.528333     0.007504
PD10936   PD        0.750556    0.417222    0.500556     0.007504
PD10957   PD        0.111667    0.445000    0.500556     0.007504
PD10959   PD        0.139444    0.445000    0.528333     0.007504
PD10960   PD        0.139444    0.472778    0.500556     0.007504
PD10961   PD        0.167222    0.445000    0.500556     0.007504
PD10962   PD        0.167222    0.472778    0.528333     0.007504
PD10963   PD        0.195000    0.445000    0.528333     0.007504
AU10964   AU        0.195000    0.472778    0.500556     0.007504
AU10965   AU        0.222778    0.445000    0.500556     0.007504
PD10966   PD        0.222778    0.472778    0.528333     0.007504
AU10967   AU        0.250556    0.445000    0.528333     0.007504
AU10968   AU        0.250556    0.472778    0.500556     0.007504
AU10969   AU        0.278333    0.445000    0.500556     0.007504
AU10970   AU        0.278333    0.472778    0.528333     0.007504
AU10971   AU        0.306111    0.445000    0.528333     0.007504
AU10972   AU        0.306111    0.472778    0.500556     0.007504
AU10973   AU        0.333889    0.445000    0.500556     0.007504
AU10974   AU        0.333889    0.472778    0.528333     0.007504
AU10975   AU        0.361667    0.445000    0.528333     0.007504
AU10976   AU        0.361667    0.472778    0.500556     0.007504
AU10977   AU        0.389444    0.445000    0.500556     0.007504
AU10978   AU        0.389444    0.472778    0.528333     0.007504
AU10979   AU        0.417222    0.445000    0.528333     0.007504
AU10980   AU        0.417222    0.472778    0.500556     0.007504
AU10981   AU        0.445000    0.445000    0.500556     0.007504
AU10982   AU        0.445000    0.472778    0.528333     0.007504
AU10983   AU        0.472778    0.445000    0.528333     0.007504
AU10984   AU        0.472778    0.472778    0.500556     0.007504
AU10985   AU        0.500556    0.445000    0.500556     0.007504
AU10986   AU        0.500556    0.472778    0.528333     0.007504
AU10987   AU        0.528333    0.445000    0.528333     0.007504
AU10988   AU        0.528333    0.472778    0.500556     0.007504
AU10989   AU        0.556111    0.445000    0.500556     0.007504
AU10990   AU        0.556111    0.472778    0.528333     0.007504
AU10991   AU        0.583889    0.445000    0.528333     0.007504
AU10992   AU        0.583889    0.472778    0.500556     0.007504
AU10993   AU        0.611667    0.445000    0.500556     0.007504
AU10994   AU        0.611667    0.472778    0.528333     0.007504
AU10995   AU        0.639444    0.445000    0.528333     0.007504
AU10996   AU        0.639444    0.472778    0.500556     0.007504
AU10997   AU        0.667222    0.445000    0.500556     0.007504
AU10998   AU        0.667222    0.472778    0.528333     0.007504
PD10999   PD        0.695000    0.445000    0.528333     0.007504
AU11000   AU        0.695000    0.472778    0.500556     0.007504
PD11001   PD        0.722778    0.445000    0.500556     0.007504
AU11002   AU        0.722778    0.472778    0.528333     0.007504
PD11003   PD        0.750556    0.445000    0.528333     0.007504
AU11004   AU        0.750556    0.472778    0.500556     0.007504
PD11005   PD        0.778333    0.445000    0.500556     0.007504
PD11027   PD        0.139444    0.500556    0.528333     0.007504
PD11028   PD        0.139444    0.528333    0.500556     0.007504
AU11029   AU        0.167222    0.500556    0.500556     0.007504
PD11030   PD        0.167222    0.528333    0.528333     0.007504
AU11031   AU        0.195000    0.500556    0.528333     0.007504
PD11032   PD        0.195000    0.528333    0.500556     0.007504
AU11033   AU        0.222778    0.500556    0.500556     0.007504
AU11034   AU        0.222778    0.528333    0.528333     0.007504
AU11035   AU        0.250556    0.500556    0.528333     0.007504
AU11036   AU        0.250556    0.528333    0.500556     0.007504
AU11037   AU        0.278333    0.500556    0.500556     0.007504
AU11038   AU        0.278333    0.528333    0.528333     0.007504
AU11039   AU        0.306111    0.500556    0.528333     0.007504
AU11040   AU        0.306111    0.528333    0.500556     0.007504
AU11041   AU        0.333889    0.500556    0.500556     0.007504
AU11042   AU        0.333889    0.528333    0.528333     0.007504
AU11043   AU        0.361667    0.500556    0.528333     0.007504
AU11044   AU        0.361667    0.528333    0.500556     0.007504
AU11045   AU        0.389444    0.500556    0.500556     0.007504
AU11046   AU        0.389444    0.528333    0.528333     0.007504
AU11047   AU        0.417222    0.500556    0.528333     0.007504
AU11048   AU        0.417222    0.528333    0.500556     0.007504
AU11049   AU        0.445000    0.500556    0.500556     0.007504
AU11050   AU        0.445000    0.528333    0.528333     0.007504
AU11051   AU        0.472778    0.500556    0.528333     0.007504
AU11052   AU        0.472778    0.528333    0.500556     0.007504
AU11053   AU        0.500556    0.500556    0.500556     0.007504
AU11054   AU        0.500556    0.528333    0.528333     0.007504
AU11055   AU        0.528333    0.500556    0.528333     0.007504
AU11056   AU        0.528333    0.528333    0.500556     0.007504
AU11057   AU        0.556111    0.500556    0.500556     0.007504
AU11058   AU        0.556111    0.528333    0.528333     0.007504
AU11059   AU        0.583889    0.500556    0.528333     0.007504
AU11060   AU        0.583889    0.528333    0.500556     0.007504
AU11061   AU        0.611667    0.500556    0.500556     0.007504
PD11062   PD        0.611667    0.528333    0.528333     0.007504
AU11063   AU        0.639444    0.500556    0.528333     0.007504
AU11064   AU        0.639444    0.528333    0.500556     0.007504
AU11065   AU        0.667222    0.500556    0.500556     0.007504
AU11066   AU        0.667222    0.528333    0.528333     0.007504
PD11067   PD        0.695000    0.500556    0.528333     0.007504
AU11068   AU        0.695000    0.528333    0.500556     0.007504
PD11069   PD        0.722778    0.500556    0.500556     0.007504
PD11070   PD        0.722778    0.528333    0.528333     0.007504
PD11071   PD        0.750556    0.500556    0.528333     0.007504
AU11072   AU        0.750556    0.528333    0.500556     0.007504
PD11095   PD        0.139444    0.556111    0.528333     0.007504
PD11096   PD        0.139444    0.583889    0.500556     0.007504
PD11097   PD        0.167222    0.556111    0.500556     0.007504
PD11098   PD        0.167222    0.583889    0.528333     0.007504
PD11099   PD        0.195000    0.556111    0.528333     0.007504
PD11100   PD        0.195000    0.583889    0.500556     0.007504
AU11101   AU        0.222778    0.556111    0.500556     0.007504
AU11102   AU        0.222778    0.583889    0.528333     0.007504
AU11103   AU        0.250556    0.556111    0.528333     0.007504
AU11104   AU        0.250556    0.583889    0.500556     0.007504
PD11105   PD        0.278333    0.556111    0.500556     0.007504
AU11106   AU        0.278333    0.583889    0.528333     0.007504
AU11107   AU        0.306111    0.556111    0.528333     0.007504
AU11108   AU        0.306111    0.583889    0.500556     0.007504
AU11109   AU        0.333889    0.556111    0.500556     0.007504
AU11110   AU        0.333889    0.583889    0.528333     0.007504
AU11111   AU        0.361667    0.556111    0.528333     0.007504
AU11112   AU        0.361667    0.583889    0.500556     0.007504
AU11113   AU        0.389444    0.556111    0.500556     0.007504
AU11114   AU        0.389444    0.583889    0.528333     0.007504
AU11115   AU        0.417222    0.556111    0.528333     0.007504
AU11116   AU        0.417222    0.583889    0.500556     0.007504
AU11117   AU        0.445000    0.556111    0.500556     0.007504
AU11118   AU        0.445000    0.583889    0.528333     0.007504
AU11119   AU        0.472778    0.556111    0.528333     0.007504
AU11120   AU        0.472778    0.583889    0.500556     0.007504
AU11121   AU        0.500556    0.556111    0.500556     0.007504
AU11122   AU        0.500556    0.583889    0.528333     0.007504
AU11123   AU        0.528333    0.556111    0.528333     0.007504
AU11124   AU        0.528333    0.583889    0.500556     0.007504
AU11125   AU        0.556111    0.556111    0.500556     0.007504
AU11126   AU        0.556111    0.583889    0.528333     0.007504
AU11127   AU        0.583889    0.556111    0.528333     0.007504
AU11128   AU        0.583889    0.583889    0.500556     0.007504
AU11129   AU        0.611667    0.556111    0.500556     0.007504
AU11130   AU        0.611667    0.583889    0.528333     0.007504
AU11131   AU        0.639444    0.556111    0.528333     0.007504
PD11132   PD        0.639444    0.583889    0.500556     0.007504
PD11133   PD        0.667222    0.556111    0.500556     0.007504
PD11134   PD        0.667222    0.583889    0.528333     0.007504
PD11135   PD        0.695000    0.556111    0.528333     0.007504
PD11136   PD        0.695000    0.583889    0.500556     0.007504
PD11137   PD        0.722778    0.556111    0.500556     0.007504
PD11138   PD        0.722778    0.583889    0.528333     0.007504
PD11139   PD        0.750556    0.556111    0.528333     0.007504
PD11140   PD        0.750556    0.583889    0.500556     0.007504
PD11165   PD        0.167222    0.611667    0.500556     0.007504
PD11167   PD        0.195000    0.611667    0.528333     0.007504
PD11168   PD        0.195000    0.639444    0.500556     0.007504
PD11169   PD        0.222778    0.611667    0.500556     0.007504
PD11170   PD        0.222778    0.639444    0.528333     0.007504
AU11171   AU        0.250556    0.611667    0.528333     0.007504
PD11172   PD        0.250556    0.639444    0.500556     0.007504
AU11173   AU        0.278333    0.611667    0.500556     0.007504
PD11174   PD        0.278333    0.639444    0.528333     0.007504
AU11175   AU        0.306111    0.611667    0.528333     0.007504
AU11176   AU        0.306111    0.639444    0.500556     0.007504
AU11177   AU        0.333889    0.611667    0.500556     0.007504
AU11178   AU        0.333889    0.639444    0.528333     0.007504
AU11179   AU        0.361667    0.611667    0.528333     0.007504
AU11180   AU        0.361667    0.639444    0.500556     0.007504
AU11181   AU        0.389444    0.611667    0.500556     0.007504
AU11182   AU        0.389444    0.639444    0.528333     0.007504
AU11183   AU        0.417222    0.611667    0.528333     0.007504
AU11184   AU        0.417222    0.639444    0.500556     0.007504
AU11185   AU        0.445000    0.611667    0.500556     0.007504
AU11186   AU        0.445000    0.639444    0.528333     0.007504
AU11187   AU        0.472778    0.611667    0.528333     0.007504
AU11188   AU        0.472778    0.639444    0.500556     0.007504
AU11189   AU        0.500556    0.611667    0.500556     0.007504
AU11190   AU        0.500556    0.639444    0.528333     0.007504
AU11191   AU        0.528333    0.611667    0.528333     0.007504
AU11192   AU        0.528333    0.639444    0.500556     0.007504
AU11193   AU        0.556111    0.611667    0.500556     0.007504
AU11194   AU        0.556111    0.639444    0.528333     0.007504
AU11195   AU        0.583889    0.611667    0.528333     0.007504
AU11196   AU        0.583889    0.639444    0.500556     0.007504
PD11197   PD        0.611667    0.611667    0.500556     0.007504
AU11198   AU        0.611667    0.639444    0.528333     0.007504
PD11199   PD        0.639444    0.611667    0.528333     0.007504
PD11200   PD        0.639444    0.639444    0.500556     0.007504
PD11201   PD        0.667222    0.611667    0.500556     0.007504
PD11202   PD        0.667222    0.639444    0.528333     0.007504
PD11203   PD        0.695000    0.611667    0.528333     0.007504
PD11204   PD        0.695000    0.639444    0.500556     0.007504
PD11205   PD        0.722778    0.611667    0.500556     0.007504
PD11237   PD        0.222778    0.667222    0.500556     0.007504
PD11239   PD        0.250556    0.667222    0.528333     0.007504
PD11240   PD        0.250556    0.695000    0.500556     0.007504
PD11241   PD        0.278333    0.667222    0.500556     0.007504
PD11242   PD        0.278333    0.695000    0.528333     0.007504
PD11243   PD        0.306111    0.667222    0.528333     0.007504
PD11244   PD        0.306111    0.695000    0.500556     0.007504
PD11245   PD        0.333889    0.667222    0.500556     0.007504
PD11246   PD        0.333889    0.695000    0.528333     0.007504
PD11247   PD        0.361667    0.667222    0.528333     0.007504
AU11248   AU        0.361667    0.695000    0.500556     0.007504
AU11249   AU        0.389444    0.667222    0.500556     0.007504
PD11250   PD        0.389444    0.695000    0.528333     0.007504
PD11251   PD        0.417222    0.667222    0.528333     0.007504
AU11252   AU        0.417222    0.695000    0.500556     0.007504
AU11253   AU        0.445000    0.667222    0.500556     0.007504
AU11254   AU        0.445000    0.695000    0.528333     0.007504
PD11255   PD        0.472778    0.667222    0.528333     0.007504
PD11256   PD        0.472778    0.695000    0.500556     0.007504
AU11257   AU        0.500556    0.667222    0.500556     0.007504
AU11258   AU        0.500556    0.695000    0.528333     0.007504
AU11259   AU        0.528333    0.667222    0.528333     0.007504
AU11260   AU        0.528333    0.695000    0.500556     0.007504
AU11261   AU        0.556111    0.667222    0.500556     0.007504
PD11262   PD        0.556111    0.695000    0.528333     0.007504
PD11263   PD        0.583889    0.667222    0.528333     0.007504
PD11264   PD        0.583889    0.695000    0.500556     0.007504
AU11265   AU        0.611667    0.667222    0.500556     0.007504
AU11266   AU        0.611667    0.695000    0.528333     0.007504
PD11267   PD        0.639444    0.667222    0.528333     0.007504
PD11268   PD        0.639444    0.695000    0.500556     0.007504
PD11269   PD        0.667222    0.667222    0.500556     0.007504
PD11309   PD        0.278333    0.722778    0.500556     0.007504
PD11311   PD        0.306111    0.722778    0.528333     0.007504
PD11312   PD        0.306111    0.750556    0.500556     0.007504
PD11313   PD        0.333889    0.722778    0.500556     0.007504
PD11314   PD        0.333889    0.750556    0.528333     0.007504
PD11315   PD        0.361667    0.722778    0.528333     0.007504
PD11316   PD        0.361667    0.750556    0.500556     0.007504
PD11317   PD        0.389444    0.722778    0.500556     0.007504
PD11318   PD        0.389444    0.750556    0.528333     0.007504
PD11319   PD        0.417222    0.722778    0.528333     0.007504
PD11320   PD        0.417222    0.750556    0.500556     0.007504
AU11321   AU        0.445000    0.722778    0.500556     0.007504
PD11322   PD        0.445000    0.750556    0.528333     0.007504
PD11323   PD        0.472778    0.722778    0.528333     0.007504
PD11324   PD        0.472778    0.750556    0.500556     0.007504
AU11325   AU        0.500556    0.722778    0.500556     0.007504
PD11326   PD        0.500556    0.750556    0.528333     0.007504
PD11327   PD        0.528333    0.722778    0.528333     0.007504
PD11328   PD        0.528333    0.750556    0.500556     0.007504
AU11329   AU        0.556111    0.722778    0.500556     0.007504
PD11330   PD        0.556111    0.750556    0.528333     0.007504
PD11331   PD        0.583889    0.722778    0.528333     0.007504
PD11332   PD        0.583889    0.750556    0.500556     0.007504
PD11333   PD        0.611667    0.722778    0.500556     0.007504
PD11389   PD        0.445000    0.778333    0.500556     0.007504
PD11724   PD        0.361667    0.139444    0.556111     0.007504
AU11726   AU        0.389444    0.139444    0.583889     0.007504
PD11728   PD        0.417222    0.139444    0.556111     0.007504
PD11730   PD        0.445000    0.139444    0.583889     0.007504
PD11732   PD        0.472778    0.139444    0.556111     0.007504
PD11734   PD        0.500556    0.139444    0.583889     0.007504
PD11736   PD        0.528333    0.139444    0.556111     0.007504
PD11784   PD        0.250556    0.195000    0.556111     0.007504
PD11786   PD        0.278333    0.195000    0.583889     0.007504
PD11787   PD        0.306111    0.167222    0.583889     0.007504
PD11788   PD        0.306111    0.195000    0.556111     0.007504
PD11789   PD        0.333889    0.167222    0.556111     0.007504
PD11790   PD        0.333889    0.195000    0.583889     0.007504
PD11791   PD        0.361667    0.167222    0.583889     0.007504
AU11792   AU        0.361667    0.195000    0.556111     0.007504
PD11793   PD        0.389444    0.167222    0.556111     0.007504
PD11794   PD        0.389444    0.195000    0.583889     0.007504
PD11795   PD        0.417222    0.167222    0.583889     0.007504
PD11796   PD        0.417222    0.195000    0.556111     0.007504
PD11797   PD        0.445000    0.167222    0.556111     0.007504
PD11798   PD        0.445000    0.195000    0.583889     0.007504
PD11799   PD        0.472778    0.167222    0.583889     0.007504
AU11800   AU        0.472778    0.195000    0.556111     0.007504
PD11801   PD        0.500556    0.167222    0.556111     0.007504
PD11802   PD        0.500556    0.195000    0.583889     0.007504
PD11803   PD        0.528333    0.167222    0.583889     0.007504
AU11804   AU        0.528333    0.195000    0.556111     0.007504
PD11805   PD        0.556111    0.167222    0.556111     0.007504
PD11806   PD        0.556111    0.195000    0.583889     0.007504
PD11807   PD        0.583889    0.167222    0.583889     0.007504
PD11808   PD        0.583889    0.195000    0.556111     0.007504
PD11810   PD        0.611667    0.195000    0.583889     0.007504
PD11812   PD        0.639444    0.195000    0.556111     0.007504
PD11848   PD        0.195000    0.250556    0.556111     0.007504
PD11849   PD        0.222778    0.222778    0.556111     0.007504
PD11850   PD        0.222778    0.250556    0.583889     0.007504
PD11851   PD        0.250556    0.222778    0.583889     0.007504
AU11852   AU        0.250556    0.250556    0.556111     0.007504
PD11853   PD        0.278333    0.222778    0.556111     0.007504
PD11854   PD        0.278333    0.250556    0.583889     0.007504
PD11855   PD        0.306111    0.222778    0.583889     0.007504
PD11856   PD        0.306111    0.250556    0.556111     0.007504
AU11857   AU        0.333889    0.222778    0.556111     0.007504
PD11858   PD        0.333889    0.250556    0.583889     0.007504
PD11859   PD        0.361667    0.222778    0.583889     0.007504
AU11860   AU        0.361667    0.250556    0.556111     0.007504
PD11861   PD        0.389444    0.222778    0.556111     0.007504
PD11862   PD        0.389444    0.250556    0.583889     0.007504
AU11863   AU        0.417222    0.222778    0.583889     0.007504
AU11864   AU        0.417222    0.250556    0.556111     0.007504
PD11865   PD        0.445000    0.222778    0.556111     0.007504
AU11866   AU        0.445000    0.250556    0.583889     0.007504
PD11867   PD        0.472778    0.222778    0.583889     0.007504
AU11868   AU        0.472778    0.250556    0.556111     0.007504
PD11869   PD        0.500556    0.222778    0.556111     0.007504
AU11870   AU        0.500556    0.250556    0.583889     0.007504
AU11871   AU        0.528333    0.222778    0.583889     0.007504
AU11872   AU        0.528333    0.250556    0.556111     0.007504
AU11873   AU        0.556111    0.222778    0.556111     0.007504
PD11874   PD        0.556111    0.250556    0.583889     0.007504
PD11875   PD        0.583889    0.222778    0.583889     0.007504
AU11876   AU        0.583889    0.250556    0.556111     0.007504
PD11877   PD        0.611667    0.222778    0.556111     0.007504
PD11878   PD        0.611667    0.250556    0.583889     0.007504
PD11879   PD        0.639444    0.222778    0.583889     0.007504
PD11880   PD        0.639444    0.250556    0.556111     0.007504
PD11881   PD        0.667222    0.222778    0.556111     0.007504
PD11882   PD        0.667222    0.250556    0.583889     0.007504
PD11884   PD        0.695000    0.250556    0.556111     0.007504
PD11914   PD        0.167222    0.306111    0.583889     0.007504
PD11915   PD        0.195000    0.278333    0.583889     0.007504
AU11916   AU        0.195000    0.306111    0.556111     0.007504
PD11917   PD        0.222778    0.278333    0.556111     0.007504
PD11918   PD        0.222778    0.306111    0.583889     0.007504
PD11919   PD        0.250556    0.278333    0.583889     0.007504
AU11920   AU        0.250556    0.306111    0.556111     0.007504
AU11921   AU        0.278333    0.278333    0.556111     0.007504
AU11922   AU        0.278333    0.306111    0.583889     0.007504
PD11923   PD        0.306111    0.278333    0.583889     0.007504
AU11924   AU        0.306111    0.306111    0.556111     0.007504
AU11925   AU        0.333889    0.278333    0.556111     0.007504
PD11926   PD        0.333889    0.306111    0.583889     0.007504
AU11927   AU        0.361667    0.278333    0.583889     0.007504
AU11928   AU        0.361667    0.306111    0.556111     0.007504
AU11929   AU        0.389444    0.278333    0.556111     0.007504
AU11930   AU        0.389444    0.306111    0.583889     0.007504
AU11931   AU        0.417222    0.278333    0.583889     0.007504
AU11932   AU        0.417222    0.306111    0.556111     0.007504
AU11933   AU        0.445000    0.278333    0.556111     0.007504
AU11934   AU        0.445000    0.306111    0.583889     0.007504
PD11935   PD        0.472778    0.278333    0.583889     0.007504
AU11936   AU        0.472778    0.306111    0.556111     0.007504
AU11937   AU        0.500556    0.278333    0.556111     0.007504
AU11938   AU        0.500556    0.306111    0.583889     0.007504
AU11939   AU        0.528333    0.278333    0.583889     0.007504
PD11940   PD        0.528333    0.306111    0.556111     0.007504
AU11941   AU        0.556111    0.278333    0.556111     0.007504
AU11942   AU        0.556111    0.306111    0.583889     0.007504
PD11943   PD        0.583889    0.278333    0.583889     0.007504
AU11944   AU        0.583889    0.306111    0.556111     0.007504
AU11945   AU        0.611667    0.278333    0.556111     0.007504
AU11946   AU        0.611667    0.306111    0.583889     0.007504
PD11947   PD        0.639444    0.278333    0.583889     0.007504
AU11948   AU        0.639444    0.306111    0.556111     0.007504
PD11949   PD        0.667222    0.278333    0.556111     0.007504
PD11950   PD        0.667222    0.306111    0.583889     0.007504
PD11951   PD        0.695000    0.278333    0.583889     0.007504
PD11952   PD        0.695000    0.306111    0.556111     0.007504
PD11954   PD        0.722778    0.306111    0.583889     0.007504
PD11980   PD        0.139444    0.361667    0.556111     0.007504
PD11981   PD        0.167222    0.333889    0.556111     0.007504
PD11982   PD        0.167222    0.361667    0.583889     0.007504
PD11983   PD        0.195000    0.333889    0.583889     0.007504
AU11984   AU        0.195000    0.361667    0.556111     0.007504
AU11985   AU        0.222778    0.333889    0.556111     0.007504
PD11986   PD        0.222778    0.361667    0.583889     0.007504
AU11987   AU        0.250556    0.333889    0.583889     0.007504
AU11988   AU        0.250556    0.361667    0.556111     0.007504
AU11989   AU        0.278333    0.333889    0.556111     0.007504
AU11990   AU        0.278333    0.361667    0.583889     0.007504
AU11991   AU        0.306111    0.333889    0.583889     0.007504
AU11992   AU        0.306111    0.361667    0.556111     0.007504
AU11993   AU        0.333889    0.333889    0.556111     0.007504
AU11994   AU        0.333889    0.361667    0.583889     0.007504
AU11995   AU        0.361667    0.333889    0.583889     0.007504
AU11996   AU        0.361667    0.361667    0.556111     0.007504
AU11997   AU        0.389444    0.333889    0.556111     0.007504
AU11998   AU        0.389444    0.361667    0.583889     0.007504
AU11999   AU        0.417222    0.333889    0.583889     0.007504
AU12000   AU        0.417222    0.361667    0.556111     0.007504
AU12001   AU        0.445000    0.333889    0.556111     0.007504
AU12002   AU        0.445000    0.361667    0.583889     0.007504
AU12003   AU        0.472778    0.333889    0.583889     0.007504
AU12004   AU        0.472778    0.361667    0.556111     0.007504
AU12005   AU        0.500556    0.333889    0.556111     0.007504
AU12006   AU        0.500556    0.361667    0.583889     0.007504
AU12007   AU        0.528333    0.333889    0.583889     0.007504
AU12008   AU        0.528333    0.361667    0.556111     0.007504
AU12009   AU        0.556111    0.333889    0.556111     0.007504
AU12010   AU        0.556111    0.361667    0.583889     0.007504
AU12011   AU        0.583889    0.333889    0.583889     0.007504
AU12012   AU        0.583889    0.361667    0.556111     0.007504
AU12013   AU        0.611667    0.333889    0.556111     0.007504
AU12014   AU        0.611667    0.361667    0.583889     0.007504
AU12015   AU        0.639444    0.333889    0.583889     0.007504
PD12016   PD        0.639444    0.361667    0.556111     0.007504
AU12017   AU        0.667222    0.333889    0.556111     0.007504
AU12018   AU        0.667222    0.361667    0.583889     0.007504
PD12019   PD        0.695000    0.333889    0.583889     0.007504
PD12020   PD        0.695000    0.361667    0.556111     0.007504
PD12021   PD        0.722778    0.333889    0.556111     0.007504
PD12022   PD        0.722778    0.361667    0.583889     0.007504
PD12024   PD        0.750556    0.361667    0.556111     0.007504
PD12047   PD        0.139444    0.389444    0.583889     0.007504
PD12048   PD        0.139444    0.417222    0.556111     0.007504
PD12049   PD        0.167222    0.389444    0.556111     0.007504
PD12050   PD        0.167222    0.417222    0.583889     0.007504
PD12051   PD        0.195000    0.389444    0.583889     0.007504
AU12052   AU        0.195000    0.417222    0.556111     0.007504
AU12053   AU        0.222778    0.389444    0.556111     0.007504
AU12054   AU        0.222778    0.417222    0.583889     0.007504
AU12055   AU        0.250556    0.389444    0.583889     0.007504
AU12056   AU        0.250556    0.417222    0.556111     0.007504
AU12057   AU        0.278333    0.389444    0.556111     0.007504
PD12058   PD        0.278333    0.417222    0.583889     0.007504
AU12059   AU        0.306111    0.389444    0.583889     0.007504
AU12060   AU        0.306111    0.417222    0.556111     0.007504
AU12061   AU        0.333889    0.389444    0.556111     0.007504
AU12062   AU        0.333889    0.417222    0.583889     0.007504
AU12063   AU        0.361667    0.389444    0.583889     0.007504
AU12064   AU        0.361667    0.417222    0.556111     0.007504
AU12065   AU        0.389444    0.389444    0.556111     0.007504
AU12066   AU        0.389444    0.417222    0.583889     0.007504
AU12067   AU        0.417222    0.389444    0.583889     0.007504
AU12068   AU        0.417222    0.417222    0.556111     0.007504
AU12069   AU        0.445000    0.389444    0.556111     0.007504
AU12070   AU        0.445000    0.417222    0.583889     0.007504
AU12071   AU        0.472778    0.389444    0.583889     0.007504
AU12072   AU        0.472778    0.417222    0.556111     0.007504
AU12073   AU        0.500556    0.389444    0.556111     0.007504
AU12074   AU        0.500556    0.417222    0.583889     0.007504
AU12075   AU        0.528333    0.389444    0.583889     0.007504
AU12076   AU        0.528333    0.417222    0.556111     0.007504
AU12077   AU        0.556111    0.389444    0.556111     0.007504
AU12078   AU        0.556111    0.417222    0.583889     0.007504
AU12079   AU        0.583889    0.389444    0.583889     0.007504
AU12080   AU        0.583889    0.417222    0.556111     0.007504
AU12081   AU        0.611667    0.389444    0.556111     0.007504
AU12082   AU        0.611667    0.417222    0.583889     0.007504
AU12083   AU        0.639444    0.389444    0.583889     0.007504
AU12084   AU        0.639444    0.417222    0.556111     0.007504
AU12085   AU        0.667222    0.389444    0.556111     0.007504
PD12086   PD        0.667222    0.417222    0.583889     0.007504
PD12087   PD        0.695000    0.389444    0.583889     0.007504
PD12088   PD        0.695000    0.417222    0.556111     0.007504
PD12089   PD        0.722778    0.389444    0.556111     0.007504
PD12090   PD        0.722778    0.417222    0.583889     0.007504
PD12091   PD        0.750556    0.389444    0.583889     0.007504
PD12092   PD        0.750556    0.417222    0.556111     0.007504
PD12115   PD        0.139444    0.445000    0.583889     0.007504
PD12116   PD        0.139444    0.472778    0.556111     0.007504
PD12117   PD        0.167222    0.445000    0.556111     0.007504
PD12118   PD        0.167222    0.472778    0.583889     0.007504
PD12119   PD        0.195000    0.445000    0.583889     0.007504
PD12120   PD        0.195000    0.472778    0.556111     0.007504
AU12121   AU        0.222778    0.445000    0.556111     0.007504
AU12122   AU        0.222778    0.472778    0.583889     0.007504
AU12123   AU        0.250556    0.445000    0.583889     0.007504
AU12124   AU        0.250556    0.472778    0.556111     0.007504
AU12125   AU        0.278333    0.445000    0.556111     0.007504
AU12126   AU        0.278333    0.472778    0.583889     0.007504
AU12127   AU        0.306111    0.445000    0.583889     0.007504
AU12128   AU        0.306111    0.472778    0.556111     0.007504
AU12129   AU        0.333889    0.445000    0.556111     0.007504
AU12130   AU        0.333889    0.472778    0.583889     0.007504
AU12131   AU        0.361667    0.445000    0.583889     0.007504
AU12132   AU        0.361667    0.472778    0.556111     0.007504
AU12133   AU        0.389444    0.445000    0.556111     0.007504
AU12134   AU        0.389444    0.472778    0.583889     0.007504
AU12135   AU        0.417222    0.445000    0.583889     0.007504
AU12136   AU        0.417222    0.472778    0.556111     0.007504
AU12137   AU        0.445000    0.445000    0.556111     0.007504
AU12138   AU        0.445000    0.472778    0.583889     0.007504
AU12139   AU        0.472778    0.445000    0.583889     0.007504
AU12140   AU        0.472778    0.472778    0.556111     0.007504
AU12141   AU        0.500556    0.445000    0.556111     0.007504
AU12142   AU        0.500556    0.472778    0.583889     0.007504
AU12143   AU        0.528333    0.445000    0.583889     0.007504
AU12144   AU        0.528333    0.472778    0.556111     0.007504
AU12145   AU        0.556111    0.445000    0.556111     0.007504
AU12146   AU        0.556111    0.472778    0.583889     0.007504
AU12147   AU        0.583889    0.445000    0.583889     0.007504
AU12148   AU        0.583889    0.472778    0.556111     0.007504
AU12149   AU        0.611667    0.445000    0.556111     0.007504
AU12150   AU        0.611667    0.472778    0.583889     0.007504
AU12151   AU        0.639444    0.445000    0.583889     0.007504
AU12152   AU        0.639444    0.472778    0.556111     0.007504
PD12153   PD        0.667222    0.445000    0.556111     0.007504
PD12154   PD        0.667222    0.472778    0.583889     0.007504
AU12155   AU        0.695000    0.445000    0.583889     0.007504
AU12156   AU        0.695000    0.472778    0.556111     0.007504
PD12157   PD        0.722778    0.445000    0.556111     0.007504
PD12158   PD        0.722778    0.472778    0.583889     0.007504
PD12159   PD        0.750556    0.445000    0.583889     0.007504
PD12160   PD        0.750556    0.472778    0.556111     0.007504
AU12183   AU        0.139444    0.500556    0.583889     0.007504
PD12184   PD        0.139444    0.528333    0.556111     0.007504
AU12185   AU        0.167222    0.500556    0.556111     0.007504
PD12186   PD        0.167222    0.528333    0.583889     0.007504
PD12187   PD        0.195000    0.500556    0.583889     0.007504
AU12188   AU        0.195000    0.528333    0.556111     0.007504
PD12189   PD        0.222778    0.500556    0.556111     0.007504
AU12190   AU        0.222778    0.528333    0.583889     0.007504
AU12191   AU        0.250556    0.500556    0.583889     0.007504
AU12192   AU        0.250556    0.528333    0.556111     0.007504
AU12193   AU        0.278333    0.500556    0.556111     0.007504
AU12194   AU        0.278333    0.528333    0.583889     0.007504
AU12195   AU        0.306111    0.500556    0.583889     0.007504
AU12196   AU        0.306111    0.528333    0.556111     0.007504
AU12197   AU        0.333889    0.500556    0.556111     0.007504
AU12198   AU        0.333889    0.528333    0.583889     0.007504
AU12199   AU        0.361667    0.500556    0.583889     0.007504
AU12200   AU        0.361667    0.528333    0.556111     0.007504
AU12201   AU        0.389444    0.500556    0.556111     0.007504
AU12202   AU        0.389444    0.528333    0.583889     0.007504
AU12203   AU        0.417222    0.500556    0.583889     0.007504
AU12204   AU        0.417222    0.528333    0.556111     0.007504
AU12205   AU        0.445000    0.500556    0.556111     0.007504
AU12206   AU        0.445000    0.528333    0.583889     0.007504
AU12207   AU        0.472778    0.500556    0.583889     0.007504
AU12208   AU        0.472778    0.528333    0.556111     0.007504
AU12209   AU        0.500556    0.500556    0.556111     0.007504
AU12210   AU        0.500556    0.528333    0.583889     0.007504
AU12211   AU        0.528333    0.500556    0.583889     0.007504
AU12212   AU        0.528333    0.528333    0.556111     0.007504
AU12213   AU        0.556111    0.500556    0.556111     0.007504
AU12214   AU        0.556111    0.528333    0.583889     0.007504
AU12215   AU        0.583889    0.500556    0.583889     0.007504
AU12216   AU        0.583889    0.528333    0.556111     0.007504
AU12217   AU        0.611667    0.500556    0.556111     0.007504
AU12218   AU        0.611667    0.528333    0.583889     0.007504
AU12219   AU        0.639444    0.500556    0.583889     0.007504
PD12220   PD        0.639444    0.528333    0.556111     0.007504
AU12221   AU        0.667222    0.500556    0.556111     0.007504
PD12222   PD        0.667222    0.528333    0.583889     0.007504
PD12223   PD        0.695000    0.500556    0.583889     0.007504
PD12224   PD        0.695000    0.528333    0.556111     0.007504
PD12225   PD        0.722778    0.500556    0.556111     0.007504
PD12226   PD        0.722778    0.528333    0.583889     0.007504
PD12227   PD        0.750556    0.500556    0.583889     0.007504
PD12228   PD        0.750556    0.528333    0.556111     0.007504
PD12253   PD        0.167222    0.556111    0.556111     0.007504
PD12254   PD        0.167222    0.583889    0.583889     0.007504
PD12255   PD        0.195000    0.556111    0.583889     0.007504
PD12256   PD        0.195000    0.583889    0.556111     0.007504
AU12257   AU        0.222778    0.556111    0.556111     0.007504
PD12258   PD        0.222778    0.583889    0.583889     0.007504
AU12259   AU        0.250556    0.556111    0.583889     0.007504
AU12260   AU        0.250556    0.583889    0.556111     0.007504
AU12261   AU        0.278333    0.556111    0.556111     0.007504
PD12262   PD        0.278333    0.583889    0.583889     0.007504
AU12263   AU        0.306111    0.556111    0.583889     0.007504
AU12264   AU        0.306111    0.583889    0.556111     0.007504
AU12265   AU        0.333889    0.556111    0.556111     0.007504
AU12266   AU        0.333889    0.583889    0.583889     0.007504
AU12267   AU        0.361667    0.556111    0.583889     0.007504
AU12268   AU        0.361667    0.583889    0.556111     0.007504
AU12269   AU        0.389444    0.556111    0.556111     0.007504
AU12270   AU        0.389444    0.583889    0.583889     0.007504
AU12271   AU        0.417222    0.556111    0.583889     0.007504
AU12272   AU        0.417222    0.583889    0.556111     0.007504
AU12273   AU        0.445000    0.556111    0.556111     0.007504
AU12274   AU        0.445000    0.583889    0.583889     0.007504
AU12275   AU        0.472778    0.556111    0.583889     0.007504
AU12276   AU        0.472778    0.583889    0.556111     0.007504
AU12277   AU        0.500556    0.556111    0.556111     0.007504
PD12278   PD        0.500556    0.583889    0.583889     0.007504
AU12279   AU        0.528333    0.556111    0.583889     0.007504
AU12280   AU        0.528333    0.583889    0.556111     0.007504
AU12281   AU        0.556111    0.556111    0.556111     0.007504
AU12282   AU        0.556111    0.583889    0.583889     0.007504
AU12283   AU        0.583889    0.556111    0.583889     0.007504
AU12284   AU        0.583889    0.583889    0.556111     0.007504
AU12285   AU        0.611667    0.556111    0.556111     0.007504
AU12286   AU        0.611667    0.583889    0.583889     0.007504
AU12287   AU        0.639444    0.556111    0.583889     0.007504
AU12288   AU        0.639444    0.583889    0.556111     0.007504
AU12289   AU        0.667222    0.556111    0.556111     0.007504
PD12290   PD        0.667222    0.583889    0.583889     0.007504
PD12291   PD        0.695000    0.556111    0.583889     0.007504
PD12292   PD        0.695000    0.583889    0.556111     0.007504
PD12293   PD        0.722778    0.556111    0.556111     0.007504
PD12294   PD        0.722778    0.583889    0.583889     0.007504
PD12323   PD        0.195000    0.611667    0.583889     0.007504
PD12324   PD        0.195000    0.639444    0.556111     0.007504
AU12325   AU        0.222778    0.611667    0.556111     0.007504
PD12326   PD        0.222778    0.639444    0.583889     0.007504
PD12327   PD        0.250556    0.611667    0.583889     0.007504
PD12328   PD        0.250556    0.639444    0.556111     0.007504
PD12329   PD        0.278333    0.611667    0.556111     0.007504
PD12330   PD        0.278333    0.639444    0.583889     0.007504
PD12331   PD        0.306111    0.611667    0.583889     0.007504
AU12332   AU        0.306111    0.639444    0.556111     0.007504
AU12333   AU        0.333889    0.611667    0.556111     0.007504
PD12334   PD        0.333889    0.639444    0.583889     0.007504
AU12335   AU        0.361667    0.611667    0.583889     0.007504
PD12336   PD        0.361667    0.639444    0.556111     0.007504
AU12337   AU        0.389444    0.611667    0.556111     0.007504
PD12338   PD        0.389444    0.639444    0.583889     0.007504
AU12339   AU        0.417222    0.611667    0.583889     0.007504
AU12340   AU        0.417222    0.639444    0.556111     0.007504
AU12341   AU        0.445000    0.611667    0.556111     0.007504
PD12342   PD        0.445000    0.639444    0.583889     0.007504
AU12343   AU        0.472778    0.611667    0.583889     0.007504
AU12344   AU        0.472778    0.639444    0.556111     0.007504
AU12345   AU        0.500556    0.611667    0.556111     0.007504
AU12346   AU        0.500556    0.639444    0.583889     0.007504
AU12347   AU        0.528333    0.611667    0.583889     0.007504
AU12348   AU        0.528333    0.639444    0.556111     0.007504
AU12349   AU        0.556111    0.611667    0.556111     0.007504
AU12350   AU        0.556111    0.639444    0.583889     0.007504
AU12351   AU        0.583889    0.611667    0.583889     0.007504
AU12352   AU        0.583889    0.639444    0.556111     0.007504
PD12353   PD        0.611667    0.611667    0.556111     0.007504
AU12354   AU        0.611667    0.639444    0.583889     0.007504
PD12355   PD        0.639444    0.611667    0.583889     0.007504
PD12356   PD        0.639444    0.639444    0.556111     0.007504
PD12357   PD        0.667222    0.611667    0.556111     0.007504
PD12358   PD        0.667222    0.639444    0.583889     0.007504
PD12359   PD        0.695000    0.611667    0.583889     0.007504
PD12360   PD        0.695000    0.639444    0.556111     0.007504
PD12393   PD        0.222778    0.667222    0.556111     0.007504
PD12395   PD        0.250556    0.667222    0.583889     0.007504
PD12396   PD        0.250556    0.695000    0.556111     0.007504
PD12397   PD        0.278333    0.667222    0.556111     0.007504
PD12398   PD        0.278333    0.695000    0.583889     0.007504
PD12399   PD        0.306111    0.667222    0.583889     0.007504
PD12400   PD        0.306111    0.695000    0.556111     0.007504
AU12401   AU        0.333889    0.667222    0.556111     0.007504
PD12402   PD        0.333889    0.695000    0.583889     0.007504
PD12403   PD        0.361667    0.667222    0.583889     0.007504
PD12404   PD        0.361667    0.695000    0.556111     0.007504
AU12405   AU        0.389444    0.667222    0.556111     0.007504
AU12406   AU        0.389444    0.695000    0.583889     0.007504
AU12407   AU        0.417222    0.667222    0.583889     0.007504
PD12408   PD        0.417222    0.695000    0.556111     0.007504
AU12409   AU        0.445000    0.667222    0.556111     0.007504
PD12410   PD        0.445000    0.695000    0.583889     0.007504
AU12411   AU        0.472778    0.667222    0.583889     0.007504
AU12412   AU        0.472778    0.695000    0.556111     0.007504
AU12413   AU        0.500556    0.667222    0.556111     0.007504
PD12414   PD        0.500556    0.695000    0.583889     0.007504
PD12415   PD        0.528333    0.667222    0.583889     0.007504
PD12416   PD        0.528333    0.695000    0.556111     0.007504
AU12417   AU        0.556111    0.667222    0.556111     0.007504
PD12418   PD        0.556111    0.695000    0.583889     0.007504
PD12419   PD        0.583889    0.667222    0.583889     0.007504
PD12420   PD        0.583889    0.695000    0.556111     0.007504
PD12421   PD        0.611667    0.667222    0.556111     0.007504
PD12422   PD        0.611667    0.695000    0.583889     0.007504
PD12423   PD        0.639444    0.667222    0.583889     0.007504
PD12424   PD        0.639444    0.695000    0.556111     0.007504
PD12425   PD        0.667222    0.667222    0.556111     0.007504
PD12467   PD        0.306111    0.722778    0.583889     0.007504
PD12469   PD        0.333889    0.722778    0.556111     0.007504
PD12471   PD        0.361667    0.722778    0.583889     0.007504
PD12472   PD        0.361667    0.750556    0.556111     0.007504
PD12473   PD        0.389444    0.722778    0.556111     0.007504
PD12474   PD        0.389444    0.750556    0.583889     0.007504
PD12475   PD        0.417222    0.722778    0.583889     0.007504
PD12476   PD        0.417222    0.750556    0.556111     0.007504
PD12477   PD        0.445000    0.722778    0.556111     0.007504
PD12478   PD        0.445000    0.750556    0.583889     0.007504
PD12479   PD        0.472778    0.722778    0.583889     0.007504
PD12480   PD        0.472778    0.750556    0.556111     0.007504
PD12481   PD        0.500556    0.722778    0.556111     0.007504
PD12482   PD        0.500556    0.750556    0.583889     0.007504
PD12483   PD        0.528333    0.722778    0.583889     0.007504
PD12484   PD        0.528333    0.750556    0.556111     0.007504
PD12485   PD        0.556111    0.722778    0.556111     0.007504
PD12487   PD        0.583889    0.722778    0.583889     0.007504
PD12944   PD        0.306111    0.195000    0.611667     0.007504
PD12946   PD        0.333889    0.195000    0.639444     0.007504
PD12948   PD        0.361667    0.195000    0.611667     0.007504
PD12949   PD        0.389444    0.167222    0.611667     0.007504
PD12950   PD        0.389444    0.195000    0.639444     0.007504
PD12951   PD        0.417222    0.167222    0.639444     0.007504
PD12952   PD        0.417222    0.195000    0.611667     0.007504
PD12953   PD        0.445000    0.167222    0.611667     0.007504
PD12954   PD        0.445000    0.195000    0.639444     0.007504
PD12955   PD        0.472778    0.167222    0.639444     0.007504
AU12956   AU        0.472778    0.195000    0.611667     0.007504
PD12957   PD        0.500556    0.167222    0.611667     0.007504
PD12958   PD        0.500556    0.195000    0.639444     0.007504
PD12960   PD        0.528333    0.195000    0.611667     0.007504
PD12962   PD        0.556111    0.195000    0.639444     0.007504
PD12964   PD        0.583889    0.195000    0.611667     0.007504
PD13008   PD        0.250556    0.250556    0.611667     0.007504
PD13009   PD        0.278333    0.222778    0.611667     0.007504
PD13010   PD        0.278333    0.250556    0.639444     0.007504
PD13011   PD        0.306111    0.222778    0.639444     0.007504
PD13012   PD        0.306111    0.250556    0.611667     0.007504
PD13013   PD        0.333889    0.222778    0.611667     0.007504
PD13014   PD        0.333889    0.250556    0.639444     0.007504
PD13015   PD        0.361667    0.222778    0.639444     0.007504
AU13016   AU        0.361667    0.250556    0.611667     0.007504
PD13017   PD        0.389444    0.222778    0.611667     0.007504
AU13018   AU        0.389444    0.250556    0.639444     0.007504
PD13019   PD        0.417222    0.222778    0.639444     0.007504
PD13020   PD        0.417222    0.250556    0.611667     0.007504
PD13021   PD        0.445000    0.222778    0.611667     0.007504
PD13022   PD        0.445000    0.250556    0.639444     0.007504
PD13023   PD        0.472778    0.222778    0.639444     0.007504
AU13024   AU        0.472778    0.250556    0.611667     0.007504
PD13025   PD        0.500556    0.222778    0.611667     0.007504
AU13026   AU        0.500556    0.250556    0.639444     0.007504
PD13027   PD        0.528333    0.222778    0.639444     0.007504
PD13028   PD        0.528333    0.250556    0.611667     0.007504
PD13029   PD        0.556111    0.222778    0.611667     0.007504
PD13030   PD        0.556111    0.250556    0.639444     0.007504
PD13031   PD        0.583889    0.222778    0.639444     0.007504
PD13032   PD        0.583889    0.250556    0.611667     0.007504
PD13033   PD        0.611667    0.222778    0.611667     0.007504
PD13034   PD        0.611667    0.250556    0.639444     0.007504
PD13036   PD        0.639444    0.250556    0.611667     0.007504
PD13072   PD        0.195000    0.306111    0.611667     0.007504
PD13073   PD        0.222778    0.278333    0.611667     0.007504
PD13074   PD        0.222778    0.306111    0.639444     0.007504
AU13075   AU        0.250556    0.278333    0.639444     0.007504
PD13076   PD        0.250556    0.306111    0.611667     0.007504
AU13077   AU        0.278333    0.278333    0.611667     0.007504
PD13078   PD        0.278333    0.306111    0.639444     0.007504
PD13079   PD        0.306111    0.278333    0.639444     0.007504
AU13080   AU        0.306111    0.306111    0.611667     0.007504
AU13081   AU        0.333889    0.278333    0.611667     0.007504
AU13082   AU        0.333889    0.306111    0.639444     0.007504
AU13083   AU        0.361667    0.278333    0.639444     0.007504
AU13084   AU        0.361667    0.306111    0.611667     0.007504
PD13085   PD        0.389444    0.278333    0.611667     0.007504
AU13086   AU        0.389444    0.306111    0.639444     0.007504
PD13087   PD        0.417222    0.278333    0.639444     0.007504
AU13088   AU        0.417222    0.306111    0.611667     0.007504
AU13089   AU        0.445000    0.278333    0.611667     0.007504
AU13090   AU        0.445000    0.306111    0.639444     0.007504
AU13091   AU        0.472778    0.278333    0.639444     0.007504
AU13092   AU        0.472778    0.306111    0.611667     0.007504
PD13093   PD        0.500556    0.278333    0.611667     0.007504
AU13094   AU        0.500556    0.306111    0.639444     0.007504
PD13095   PD        0.528333    0.278333    0.639444     0.007504
AU13096   AU        0.528333    0.306111    0.611667     0.007504
PD13097   PD        0.556111    0.278333    0.611667     0.007504
PD13098   PD        0.556111    0.306111    0.639444     0.007504
PD13099   PD        0.583889    0.278333    0.639444     0.007504
PD13100   PD        0.583889    0.306111    0.611667     0.007504
PD13101   PD        0.611667    0.278333    0.611667     0.007504
PD13102   PD        0.611667    0.306111    0.639444     0.007504
PD13103   PD        0.639444    0.278333    0.639444     0.007504
PD13104   PD        0.639444    0.306111    0.611667     0.007504
PD13105   PD        0.667222    0.278333    0.611667     0.007504
PD13106   PD        0.667222    0.306111    0.639444     0.007504
PD13108   PD        0.695000    0.306111    0.611667     0.007504
PD13139   PD        0.195000    0.333889    0.639444     0.007504
PD13140   PD        0.195000    0.361667    0.611667     0.007504
PD13141   PD        0.222778    0.333889    0.611667     0.007504
PD13142   PD        0.222778    0.361667    0.639444     0.007504
PD13143   PD        0.250556    0.333889    0.639444     0.007504
AU13144   AU        0.250556    0.361667    0.611667     0.007504
PD13145   PD        0.278333    0.333889    0.611667     0.007504
PD13146   PD        0.278333    0.361667    0.639444     0.007504
AU13147   AU        0.306111    0.333889    0.639444     0.007504
AU13148   AU        0.306111    0.361667    0.611667     0.007504
AU13149   AU        0.333889    0.333889    0.611667     0.007504
AU13150   AU        0.333889    0.361667    0.639444     0.007504
AU13151   AU        0.361667    0.333889    0.639444     0.007504
AU13152   AU        0.361667    0.361667    0.611667     0.007504
AU13153   AU        0.389444    0.333889    0.611667     0.007504
AU13154   AU        0.389444    0.361667    0.639444     0.007504
AU13155   AU        0.417222    0.333889    0.639444     0.007504
AU13156   AU        0.417222    0.361667    0.611667     0.007504
AU13157   AU        0.445000    0.333889    0.611667     0.007504
AU13158   AU        0.445000    0.361667    0.639444     0.007504
AU13159   AU        0.472778    0.333889    0.639444     0.007504
AU13160   AU        0.472778    0.361667    0.611667     0.007504
AU13161   AU        0.500556    0.333889    0.611667     0.007504
AU13162   AU        0.500556    0.361667    0.639444     0.007504
AU13163   AU        0.528333    0.333889    0.639444     0.007504
AU13164   AU        0.528333    0.361667    0.611667     0.007504
AU13165   AU        0.556111    0.333889    0.611667     0.007504
AU13166   AU        0.556111    0.361667    0.639444     0.007504
PD13167   PD        0.583889    0.333889    0.639444     0.007504
AU13168   AU        0.583889    0.361667    0.611667     0.007504
PD13169   PD        0.611667    0.333889    0.611667     0.007504
PD13170   PD        0.611667    0.361667    0.639444     0.007504
PD13171   PD        0.639444    0.333889    0.639444     0.007504
AU13172   AU        0.639444    0.361667    0.611667     0.007504
PD13173   PD        0.667222    0.333889    0.611667     0.007504
PD13174   PD        0.667222    0.361667    0.639444     0.007504
PD13175   PD        0.695000    0.333889    0.639444     0.007504
PD13176   PD        0.695000    0.361667    0.611667     0.007504
PD13205   PD        0.167222    0.389444    0.611667     0.007504
PD13206   PD        0.167222    0.417222    0.639444     0.007504
PD13207   PD        0.195000    0.389444    0.639444     0.007504
AU13208   AU        0.195000    0.417222    0.611667     0.007504
PD13209   PD        0.222778    0.389444    0.611667     0.007504
AU13210   AU        0.222778    0.417222    0.639444     0.007504
PD13211   PD        0.250556    0.389444    0.639444     0.007504
AU13212   AU        0.250556    0.417222    0.611667     0.007504
AU13213   AU        0.278333    0.389444    0.611667     0.007504
PD13214   PD        0.278333    0.417222    0.639444     0.007504
AU13215   AU        0.306111    0.389444    0.639444     0.007504
AU13216   AU        0.306111    0.417222    0.611667     0.007504
AU13217   AU        0.333889    0.389444    0.611667     0.007504
AU13218   AU        0.333889    0.417222    0.639444     0.007504
AU13219   AU        0.361667    0.389444    0.639444     0.007504
AU13220   AU        0.361667    0.417222    0.611667     0.007504
AU13221   AU        0.389444    0.389444    0.611667     0.007504
AU13222   AU        0.389444    0.417222    0.639444     0.007504
AU13223   AU        0.417222    0.389444    0.639444     0.007504
AU13224   AU        0.417222    0.417222    0.611667     0.007504
AU13225   AU        0.445000    0.389444    0.611667     0.007504
AU13226   AU        0.445000    0.417222    0.639444     0.007504
AU13227   AU        0.472778    0.389444    0.639444     0.007504
AU13228   AU        0.472778    0.417222    0.611667     0.007504
AU13229   AU        0.500556    0.389444    0.611667     0.007504
AU13230   AU        0.500556    0.417222    0.639444     0.007504
AU13231   AU        0.528333    0.389444    0.639444     0.007504
AU13232   AU        0.528333    0.417222    0.611667     0.007504
AU13233   AU        0.556111    0.389444    0.611667     0.007504
AU13234   AU        0.556111    0.417222    0.639444     0.007504
AU13235   AU        0.583889    0.389444    0.639444     0.007504
AU13236   AU        0.583889    0.417222    0.611667     0.007504
AU13237   AU        0.611667    0.389444    0.611667     0.007504
AU13238   AU        0.611667    0.417222    0.639444     0.007504
PD13239   PD        0.639444    0.389444    0.639444     0.007504
AU13240   AU        0.639444    0.417222    0.611667     0.007504
PD13241   PD        0.667222    0.389444    0.611667     0.007504
AU13242   AU        0.667222    0.417222    0.639444     0.007504
PD13243   PD        0.695000    0.389444    0.639444     0.007504
PD13244   PD        0.695000    0.417222    0.611667     0.007504
PD13245   PD        0.722778    0.389444    0.611667     0.007504
PD13246   PD        0.722778    0.417222    0.639444     0.007504
PD13273   PD        0.167222    0.445000    0.611667     0.007504
PD13274   PD        0.167222    0.472778    0.639444     0.007504
PD13275   PD        0.195000    0.445000    0.639444     0.007504
PD13276   PD        0.195000    0.472778    0.611667     0.007504
PD13277   PD        0.222778    0.445000    0.611667     0.007504
PD13278   PD        0.222778    0.472778    0.639444     0.007504
PD13279   PD        0.250556    0.445000    0.639444     0.007504
AU13280   AU        0.250556    0.472778    0.611667     0.007504
AU13281   AU        0.278333    0.445000    0.611667     0.007504
PD13282   PD        0.278333    0.472778    0.639444     0.007504
AU13283   AU        0.306111    0.445000    0.639444     0.007504
AU13284   AU        0.306111    0.472778    0.611667     0.007504
AU13285   AU        0.333889    0.445000    0.611667     0.007504
AU13286   AU        0.333889    0.472778    0.639444     0.007504
AU13287   AU        0.361667    0.445000    0.639444     0.007504
AU13288   AU        0.361667    0.472778    0.611667     0.007504
AU13289   AU        0.389444    0.445000    0.611667     0.007504
AU13290   AU        0.389444    0.472778    0.639444     0.007504
AU13291   AU        0.417222    0.445000    0.639444     0.007504
AU13292   AU        0.417222    0.472778    0.611667     0.007504
AU13293   AU        0.445000    0.445000    0.611667     0.007504
AU13294   AU        0.445000    0.472778    0.639444     0.007504
AU13295   AU        0.472778    0.445000    0.639444     0.007504
AU13296   AU        0.472778    0.472778    0.611667     0.007504
AU13297   AU        0.500556    0.445000    0.611667     0.007504
AU13298   AU        0.500556    0.472778    0.639444     0.007504
AU13299   AU        0.528333    0.445000    0.639444     0.007504
AU13300   AU        0.528333    0.472778    0.611667     0.007504
AU13301   AU        0.556111    0.445000    0.611667     0.007504
AU13302   AU        0.556111    0.472778    0.639444     0.007504
AU13303   AU        0.583889    0.445000    0.639444     0.007504
AU13304   AU        0.583889    0.472778    0.611667     0.007504
PD13305   PD        0.611667    0.445000    0.611667     0.007504
AU13306   AU        0.611667    0.472778    0.639444     0.007504
PD13307   PD        0.639444    0.445000    0.639444     0.007504
PD13308   PD        0.639444    0.472778    0.611667     0.007504
PD13309   PD        0.667222    0.445000    0.611667     0.007504
PD13310   PD        0.667222    0.472778    0.639444     0.007504
PD13311   PD        0.695000    0.445000    0.639444     0.007504
PD13312   PD        0.695000    0.472778    0.611667     0.007504
PD13313   PD        0.722778    0.445000    0.611667     0.007504
PD13314   PD        0.722778    0.472778    0.639444     0.007504
PD13341   PD        0.167222    0.500556    0.611667     0.007504
PD13343   PD        0.195000    0.500556    0.639444     0.007504
PD13344   PD        0.195000    0.528333    0.611667     0.007504
AU13345   AU        0.222778    0.500556    0.611667     0.007504
PD13346   PD        0.222778    0.528333    0.639444     0.007504
PD13347   PD        0.250556    0.500556    0.639444     0.007504
AU13348   AU        0.250556    0.528333    0.611667     0.007504
AU13349   AU        0.278333    0.500556    0.611667     0.007504
AU13350   AU        0.278333    0.528333    0.639444     0.007504
PD13351   PD        0.306111    0.500556    0.639444     0.007504
AU13352   AU        0.306111    0.528333    0.611667     0.007504
AU13353   AU        0.333889    0.500556    0.611667     0.007504
AU13354   AU        0.333889    0.528333    0.639444     0.007504
AU13355   AU        0.361667    0.500556    0.639444     0.007504
AU13356   AU        0.361667    0.528333    0.611667     0.007504
AU13357   AU        0.389444    0.500556    0.611667     0.007504
AU13358   AU        0.389444    0.528333    0.639444     0.007504
AU13359   AU        0.417222    0.500556    0.639444     0.007504
AU13360   AU        0.417222    0.528333    0.611667     0.007504
AU13361   AU        0.445000    0.500556    0.611667     0.007504
AU13362   AU        0.445000    0.528333    0.639444     0.007504
AU13363   AU        0.472778    0.500556    0.639444     0.007504
AU13364   AU        0.472778    0.528333    0.611667     0.007504
AU13365   AU        0.500556    0.500556    0.611667     0.007504
AU13366   AU        0.500556    0.528333    0.639444     0.007504
AU13367   AU        0.528333    0.500556    0.639444     0.007504
AU13368   AU        0.528333    0.528333    0.611667     0.007504
AU13369   AU        0.556111    0.500556    0.611667     0.007504
AU13370   AU        0.556111    0.528333    0.639444     0.007504
AU13371   AU        0.583889    0.500556    0.639444     0.007504
AU13372   AU        0.583889    0.528333    0.611667     0.007504
AU13373   AU        0.611667    0.500556    0.611667     0.007504
PD13374   PD        0.611667    0.528333    0.639444     0.007504
PD13375   PD        0.639444    0.500556    0.639444     0.007504
PD13376   PD        0.639444    0.528333    0.611667     0.007504
PD13377   PD        0.667222    0.500556    0.611667     0.007504
AU13378   AU        0.667222    0.528333    0.639444     0.007504
PD13379   PD        0.695000    0.500556    0.639444     0.007504
PD13380   PD        0.695000    0.528333    0.611667     0.007504
PD13381   PD        0.722778    0.500556    0.611667     0.007504
PD13411   PD        0.195000    0.556111    0.639444     0.007504
PD13412   PD        0.195000    0.583889    0.611667     0.007504
PD13413   PD        0.222778    0.556111    0.611667     0.007504
PD13414   PD        0.222778    0.583889    0.639444     0.007504
AU13415   AU        0.250556    0.556111    0.639444     0.007504
AU13416   AU        0.250556    0.583889    0.611667     0.007504
PD13417   PD        0.278333    0.556111    0.611667     0.007504
PD13418   PD        0.278333    0.583889    0.639444     0.007504
AU13419   AU        0.306111    0.556111    0.639444     0.007504
AU13420   AU        0.306111    0.583889    0.611667     0.007504
AU13421   AU        0.333889    0.556111    0.611667     0.007504
PD13422   PD        0.333889    0.583889    0.639444     0.007504
AU13423   AU        0.361667    0.556111    0.639444     0.007504
AU13424   AU        0.361667    0.583889    0.611667     0.007504
PD13425   PD        0.389444    0.556111    0.611667     0.007504
AU13426   AU        0.389444    0.583889    0.639444     0.007504
AU13427   AU        0.417222    0.556111    0.639444     0.007504
AU13428   AU        0.417222    0.583889    0.611667     0.007504
AU13429   AU        0.445000    0.556111    0.611667     0.007504
PD13430   PD        0.445000    0.583889    0.639444     0.007504
PD13431   PD        0.472778    0.556111    0.639444     0.007504
AU13432   AU        0.472778    0.583889    0.611667     0.007504
AU13433   AU        0.500556    0.556111    0.611667     0.007504
AU13434   AU        0.500556    0.583889    0.639444     0.007504
AU13435   AU        0.528333    0.556111    0.639444     0.007504
PD13436   PD        0.528333    0.583889    0.611667     0.007504
AU13437   AU        0.556111    0.556111    0.611667     0.007504
AU13438   AU        0.556111    0.583889    0.639444     0.007504
AU13439   AU        0.583889    0.556111    0.639444     0.007504
AU13440   AU        0.583889    0.583889    0.611667     0.007504
AU13441   AU        0.611667    0.556111    0.611667     0.007504
PD13442   PD        0.611667    0.583889    0.639444     0.007504
PD13443   PD        0.639444    0.556111    0.639444     0.007504
AU13444   AU        0.639444    0.583889    0.611667     0.007504
PD13445   PD        0.667222    0.556111    0.611667     0.007504
PD13446   PD        0.667222    0.583889    0.639444     0.007504
PD13447   PD        0.695000    0.556111    0.639444     0.007504
PD13448   PD        0.695000    0.583889    0.611667     0.007504
PD13481   PD        0.222778    0.611667    0.611667     0.007504
PD13483   PD        0.250556    0.611667    0.639444     0.007504
PD13484   PD        0.250556    0.639444    0.611667     0.007504
AU13485   AU        0.278333    0.611667    0.611667     0.007504
PD13486   PD        0.278333    0.639444    0.639444     0.007504
PD13487   PD        0.306111    0.611667    0.639444     0.007504
PD13488   PD        0.306111    0.639444    0.611667     0.007504
AU13489   AU        0.333889    0.611667    0.611667     0.007504
PD13490   PD        0.333889    0.639444    0.639444     0.007504
AU13491   AU        0.361667    0.611667    0.639444     0.007504
PD13492   PD        0.361667    0.639444    0.611667     0.007504
AU13493   AU        0.389444    0.611667    0.611667     0.007504
PD13494   PD        0.389444    0.639444    0.639444     0.007504
AU13495   AU        0.417222    0.611667    0.639444     0.007504
AU13496   AU        0.417222    0.639444    0.611667     0.007504
AU13497   AU        0.445000    0.611667    0.611667     0.007504
AU13498   AU        0.445000    0.639444    0.639444     0.007504
AU13499   AU        0.472778    0.611667    0.639444     0.007504
AU13500   AU        0.472778    0.639444    0.611667     0.007504
PD13501   PD        0.500556    0.611667    0.611667     0.007504
AU13502   AU        0.500556    0.639444    0.639444     0.007504
PD13503   PD        0.528333    0.611667    0.639444     0.007504
PD13504   PD        0.528333    0.639444    0.611667     0.007504
PD13505   PD        0.556111    0.611667    0.611667     0.007504
PD13506   PD        0.556111    0.639444    0.639444     0.007504
PD13507   PD        0.583889    0.611667    0.639444     0.007504
PD13508   PD        0.583889    0.639444    0.611667     0.007504
AU13509   AU        0.611667    0.611667    0.611667     0.007504
PD13510   PD        0.611667    0.639444    0.639444     0.007504
PD13511   PD        0.639444    0.611667    0.639444     0.007504
PD13512   PD        0.639444    0.639444    0.611667     0.007504
PD13513   PD        0.667222    0.611667    0.611667     0.007504
PD13553   PD        0.278333    0.667222    0.611667     0.007504
PD13555   PD        0.306111    0.667222    0.639444     0.007504
PD13556   PD        0.306111    0.695000    0.611667     0.007504
AU13557   AU        0.333889    0.667222    0.611667     0.007504
PD13558   PD        0.333889    0.695000    0.639444     0.007504
PD13559   PD        0.361667    0.667222    0.639444     0.007504
PD13560   PD        0.361667    0.695000    0.611667     0.007504
PD13561   PD        0.389444    0.667222    0.611667     0.007504
PD13562   PD        0.389444    0.695000    0.639444     0.007504
PD13563   PD        0.417222    0.667222    0.639444     0.007504
PD13564   PD        0.417222    0.695000    0.611667     0.007504
PD13565   PD        0.445000    0.667222    0.611667     0.007504
PD13566   PD        0.445000    0.695000    0.639444     0.007504
AU13567   AU        0.472778    0.667222    0.639444     0.007504
PD13568   PD        0.472778    0.695000    0.611667     0.007504
PD13569   PD        0.500556    0.667222    0.611667     0.007504
PD13570   PD        0.500556    0.695000    0.639444     0.007504
PD13571   PD        0.528333    0.667222    0.639444     0.007504
PD13572   PD        0.528333    0.695000    0.611667     0.007504
PD13573   PD        0.556111    0.667222    0.611667     0.007504
PD13574   PD        0.556111    0.695000    0.639444     0.007504
PD13575   PD        0.583889    0.667222    0.639444     0.007504
PD13576   PD        0.583889    0.695000    0.611667     0.007504
PD13577   PD        0.611667    0.667222    0.611667     0.007504
PD13629   PD        0.389444    0.722778    0.611667     0.007504
PD13631   PD        0.417222    0.722778    0.639444     0.007504
PD13633   PD        0.445000    0.722778    0.611667     0.007504
PD13635   PD        0.472778    0.722778    0.639444     0.007504
PD13637   PD        0.500556    0.722778    0.611667     0.007504
PD14108   PD        0.417222    0.195000    0.667222     0.007504
PD14112   PD        0.472778    0.195000    0.667222     0.007504
PD14168   PD        0.306111    0.250556    0.667222     0.007504
PD14169   PD        0.333889    0.222778    0.667222     0.007504
PD14170   PD        0.333889    0.250556    0.695000     0.007504
PD14172   PD        0.361667    0.250556    0.667222     0.007504
PD14173   PD        0.389444    0.222778    0.667222     0.007504
PD14174   PD        0.389444    0.250556    0.695000     0.007504
PD14175   PD        0.417222    0.222778    0.695000     0.007504
AU14176   AU        0.417222    0.250556    0.667222     0.007504
PD14177   PD        0.445000    0.222778    0.667222     0.007504
AU14178   AU        0.445000    0.250556    0.695000     0.007504
PD14179   PD        0.472778    0.222778    0.695000     0.007504
PD14180   PD        0.472778    0.250556    0.667222     0.007504
PD14181   PD        0.500556    0.222778    0.667222     0.007504
AU14182   AU        0.500556    0.250556    0.695000     0.007504
PD14184   PD        0.528333    0.250556    0.667222     0.007504
AU14185   AU        0.556111    0.222778    0.667222     0.007504
PD14186   PD        0.556111    0.250556    0.695000     0.007504
PD14188   PD        0.583889    0.250556    0.667222     0.007504
PD14232   PD        0.250556    0.306111    0.667222     0.007504
PD14233   PD        0.278333    0.278333    0.667222     0.007504
PD14234   PD        0.278333    0.306111    0.695000     0.007504
PD14235   PD        0.306111    0.278333    0.695000     0.007504
PD14236   PD        0.306111    0.306111    0.667222     0.007504
PD14237   PD        0.333889    0.278333    0.667222     0.007504
PD14238   PD        0.333889    0.306111    0.695000     0.007504
PD14239   PD        0.361667    0.278333    0.695000     0.007504
PD14240   PD        0.361667    0.306111    0.667222     0.007504
AU14241   AU        0.389444    0.278333    0.667222     0.007504
PD14242   PD        0.389444    0.306111    0.695000     0.007504
PD14243   PD        0.417222    0.278333    0.695000     0.007504
AU14244   AU        0.417222    0.306111    0.667222     0.007504
PD14245   PD        0.445000    0.278333    0.667222     0.007504
PD14246   PD        0.445000    0.306111    0.695000     0.007504
PD14247   PD        0.472778    0.278333    0.695000     0.007504
PD14248   PD        0.472778    0.306111    0.667222     0.007504
PD14249   PD        0.500556    0.278333    0.667222     0.007504
PD14250   PD        0.500556    0.306111    0.695000     0.007504
PD14251   PD        0.528333    0.278333    0.695000     0.007504
PD14252   PD        0.528333    0.306111    0.667222     0.007504
PD14253   PD        0.556111    0.278333    0.667222     0.007504
AU14254   AU        0.556111    0.306111    0.695000     0.007504
PD14255   PD        0.583889    0.278333    0.695000     0.007504
PD14256   PD        0.583889    0.306111    0.667222     0.007504
PD14257   PD        0.611667    0.278333    0.667222     0.007504
PD14258   PD        0.611667    0.306111    0.695000     0.007504
PD14260   PD        0.639444    0.306111    0.667222     0.007504
PD14297   PD        0.222778    0.333889    0.667222     0.007504
PD14299   PD        0.250556    0.333889    0.695000     0.007504
PD14300   PD        0.250556    0.361667    0.667222     0.007504
PD14301   PD        0.278333    0.333889    0.667222     0.007504
PD14302   PD        0.278333    0.361667    0.695000     0.007504
PD14303   PD        0.306111    0.333889    0.695000     0.007504
AU14304   AU        0.306111    0.361667    0.667222     0.007504
AU14305   AU        0.333889    0.333889    0.667222     0.007504
PD14306   PD        0.333889    0.361667    0.695000     0.007504
PD14307   PD        0.361667    0.333889    0.695000     0.007504
PD14308   PD        0.361667    0.361667    0.667222     0.007504
AU14309   AU        0.389444    0.333889    0.667222     0.007504
PD14310   PD        0.389444    0.361667    0.695000     0.007504
AU14311   AU        0.417222    0.333889    0.695000     0.007504
AU14312   AU        0.417222    0.361667    0.667222     0.007504
PD14313   PD        0.445000    0.333889    0.667222     0.007504
PD14314   PD        0.445000    0.361667    0.695000     0.007504
PD14315   PD        0.472778    0.333889    0.695000     0.007504
PD14316   PD        0.472778    0.361667    0.667222     0.007504
PD14317   PD        0.500556    0.333889    0.667222     0.007504
AU14318   AU        0.500556    0.361667    0.695000     0.007504
PD14319   PD        0.528333    0.333889    0.695000     0.007504
AU14320   AU        0.528333    0.361667    0.667222     0.007504
AU14321   AU        0.556111    0.333889    0.667222     0.007504
PD14322   PD        0.556111    0.361667    0.695000     0.007504
PD14323   PD        0.583889    0.333889    0.695000     0.007504
PD14324   PD        0.583889    0.361667    0.667222     0.007504
PD14325   PD        0.611667    0.333889    0.667222     0.007504
PD14326   PD        0.611667    0.361667    0.695000     0.007504
PD14327   PD        0.639444    0.333889    0.695000     0.007504
PD14328   PD        0.639444    0.361667    0.667222     0.007504
PD14329   PD        0.667222    0.333889    0.667222     0.007504
PD14364   PD        0.195000    0.417222    0.667222     0.007504
PD14365   PD        0.222778    0.389444    0.667222     0.007504
PD14366   PD        0.222778    0.417222    0.695000     0.007504
PD14367   PD        0.250556    0.389444    0.695000     0.007504
AU14368   AU        0.250556    0.417222    0.667222     0.007504
PD14369   PD        0.278333    0.389444    0.667222     0.007504
PD14370   PD        0.278333    0.417222    0.695000     0.007504
PD14371   PD        0.306111    0.389444    0.695000     0.007504
AU14372   AU        0.306111    0.417222    0.667222     0.007504
AU14373   AU        0.333889    0.389444    0.667222     0.007504
AU14374   AU        0.333889    0.417222    0.695000     0.007504
PD14375   PD        0.361667    0.389444    0.695000     0.007504
AU14376   AU        0.361667    0.417222    0.667222     0.007504
AU14377   AU        0.389444    0.389444    0.667222     0.007504
AU14378   AU        0.389444    0.417222    0.695000     0.007504
AU14379   AU        0.417222    0.389444    0.695000     0.007504
AU14380   AU        0.417222    0.417222    0.667222     0.007504
PD14381   PD        0.445000    0.389444    0.667222     0.007504
AU14382   AU        0.445000    0.417222    0.695000     0.007504
PD14383   PD        0.472778    0.389444    0.695000     0.007504
AU14384   AU        0.472778    0.417222    0.667222     0.007504
AU14385   AU        0.500556    0.389444    0.667222     0.007504
PD14386   PD        0.500556    0.417222    0.695000     0.007504
PD14387   PD        0.528333    0.389444    0.695000     0.007504
AU14388   AU        0.528333    0.417222    0.667222     0.007504
AU14389   AU        0.556111    0.389444    0.667222     0.007504
PD14390   PD        0.556111    0.417222    0.695000     0.007504
PD14391   PD        0.583889    0.389444    0.695000     0.007504
PD14392   PD        0.583889    0.417222    0.667222     0.007504
AU14393   AU        0.611667    0.389444    0.667222     0.007504
PD14394   PD        0.611667    0.417222    0.695000     0.007504
PD14395   PD        0.639444    0.389444    0.695000     0.007504
AU14396   AU        0.639444    0.417222    0.667222     0.007504
PD14397   PD        0.667222    0.389444    0.667222     0.007504
PD14398   PD        0.667222    0.417222    0.695000     0.007504
PD14400   PD        0.695000    0.417222    0.667222     0.007504
PD14432   PD        0.195000    0.472778    0.667222     0.007504
PD14433   PD        0.222778    0.445000    0.667222     0.007504
AU14434   AU        0.222778    0.472778    0.695000     0.007504
PD14435   PD        0.250556    0.445000    0.695000     0.007504
AU14436   AU        0.250556    0.472778    0.667222     0.007504
PD14437   PD        0.278333    0.445000    0.667222     0.007504
PD14438   PD        0.278333    0.472778    0.695000     0.007504
AU14439   AU        0.306111    0.445000    0.695000     0.007504
PD14440   PD        0.306111    0.472778    0.667222     0.007504
AU14441   AU        0.333889    0.445000    0.667222     0.007504
PD14442   PD        0.333889    0.472778    0.695000     0.007504
AU14443   AU        0.361667    0.445000    0.695000     0.007504
PD14444   PD        0.361667    0.472778    0.667222     0.007504
AU14445   AU        0.389444    0.445000    0.667222     0.007504
PD14446   PD        0.389444    0.472778    0.695000     0.007504
AU14447   AU        0.417222    0.445000    0.695000     0.007504
AU14448   AU        0.417222    0.472778    0.667222     0.007504
AU14449   AU        0.445000    0.445000    0.667222     0.007504
AU14450   AU        0.445000    0.472778    0.695000     0.007504
PD14451   PD        0.472778    0.445000    0.695000     0.007504
AU14452   AU        0.472778    0.472778    0.667222     0.007504
AU14453   AU        0.500556    0.445000    0.667222     0.007504
AU14454   AU        0.500556    0.472778    0.695000     0.007504
PD14455   PD        0.528333    0.445000    0.695000     0.007504
PD14456   PD        0.528333    0.472778    0.667222     0.007504
AU14457   AU        0.556111    0.445000    0.667222     0.007504
PD14458   PD        0.556111    0.472778    0.695000     0.007504
PD14459   PD        0.583889    0.445000    0.695000     0.007504
PD14460   PD        0.583889    0.472778    0.667222     0.007504
AU14461   AU        0.611667    0.445000    0.667222     0.007504
PD14462   PD        0.611667    0.472778    0.695000     0.007504
PD14463   PD        0.639444    0.445000    0.695000     0.007504
PD14464   PD        0.639444    0.472778    0.667222     0.007504
PD14465   PD        0.667222    0.445000    0.667222     0.007504
PD14466   PD        0.667222    0.472778    0.695000     0.007504
PD14468   PD        0.695000    0.472778    0.667222     0.007504
PD14501   PD        0.222778    0.500556    0.667222     0.007504
PD14503   PD        0.250556    0.500556    0.695000     0.007504
PD14504   PD        0.250556    0.528333    0.667222     0.007504
PD14505   PD        0.278333    0.500556    0.667222     0.007504
PD14506   PD        0.278333    0.528333    0.695000     0.007504
PD14507   PD        0.306111    0.500556    0.695000     0.007504
PD14508   PD        0.306111    0.528333    0.667222     0.007504
PD14509   PD        0.333889    0.500556    0.667222     0.007504
PD14510   PD        0.333889    0.528333    0.695000     0.007504
PD14511   PD        0.361667    0.500556    0.695000     0.007504
AU14512   AU        0.361667    0.528333    0.667222     0.007504
AU14513   AU        0.389444    0.500556    0.667222     0.007504
AU14514   AU        0.389444    0.528333    0.695000     0.007504
AU14515   AU        0.417222    0.500556    0.695000     0.007504
PD14516   PD        0.417222    0.528333    0.667222     0.007504
AU14517   AU        0.445000    0.500556    0.667222     0.007504
PD14518   PD        0.445000    0.528333    0.695000     0.007504
PD14519   PD        0.472778    0.500556    0.695000     0.007504
AU14520   AU        0.472778    0.528333    0.667222     0.007504
AU14521   AU        0.500556    0.500556    0.667222     0.007504
PD14522   PD        0.500556    0.528333    0.695000     0.007504
PD14523   PD        0.528333    0.500556    0.695000     0.007504
AU14524   AU        0.528333    0.528333    0.667222     0.007504
PD14525   PD        0.556111    0.500556    0.667222     0.007504
AU14526   AU        0.556111    0.528333    0.695000     0.007504
PD14527   PD        0.583889    0.500556    0.695000     0.007504
AU14528   AU        0.583889    0.528333    0.667222     0.007504
AU14529   AU        0.611667    0.500556    0.667222     0.007504
PD14530   PD        0.611667    0.528333    0.695000     0.007504
PD14531   PD        0.639444    0.500556    0.695000     0.007504
PD14532   PD        0.639444    0.528333    0.667222     0.007504
PD14533   PD        0.667222    0.500556    0.667222     0.007504
PD14569   PD        0.222778    0.556111    0.667222     0.007504
PD14571   PD        0.250556    0.556111    0.695000     0.007504
PD14572   PD        0.250556    0.583889    0.667222     0.007504
PD14573   PD        0.278333    0.556111    0.667222     0.007504
PD14574   PD        0.278333    0.583889    0.695000     0.007504
PD14575   PD        0.306111    0.556111    0.695000     0.007504
PD14576   PD        0.306111    0.583889    0.667222     0.007504
PD14577   PD        0.333889    0.556111    0.667222     0.007504
PD14578   PD        0.333889    0.583889    0.695000     0.007504
PD14579   PD        0.361667    0.556111    0.695000     0.007504
PD14580   PD        0.361667    0.583889    0.667222     0.007504
AU14581   AU        0.389444    0.556111    0.667222     0.007504
PD14582   PD        0.389444    0.583889    0.695000     0.007504
AU14583   AU        0.417222    0.556111    0.695000     0.007504
AU14584   AU        0.417222    0.583889    0.667222     0.007504
AU14585   AU        0.445000    0.556111    0.667222     0.007504
PD14586   PD        0.445000    0.583889    0.695000     0.007504
PD14587   PD        0.472778    0.556111    0.695000     0.007504
PD14588   PD        0.472778    0.583889    0.667222     0.007504
AU14589   AU        0.500556    0.556111    0.667222     0.007504
PD14590   PD        0.500556    0.583889    0.695000     0.007504
AU14591   AU        0.528333    0.556111    0.695000     0.007504
AU14592   AU        0.528333    0.583889    0.667222     0.007504
AU14593   AU        0.556111    0.556111    0.667222     0.007504
PD14594   PD        0.556111    0.583889    0.695000     0.007504
PD14595   PD        0.583889    0.556111    0.695000     0.007504
PD14596   PD        0.583889    0.583889    0.667222     0.007504
PD14597   PD        0.611667    0.556111    0.667222     0.007504
PD14598   PD        0.611667    0.583889    0.695000     0.007504
PD14599   PD        0.639444    0.556111    0.695000     0.007504
PD14600   PD        0.639444    0.583889    0.667222     0.007504
PD14601   PD        0.667222    0.556111    0.667222     0.007504
PD14641   PD        0.278333    0.611667    0.667222     0.007504
PD14643   PD        0.306111    0.611667    0.695000     0.007504
PD14644   PD        0.306111    0.639444    0.667222     0.007504
PD14645   PD        0.333889    0.611667    0.667222     0.007504
PD14646   PD        0.333889    0.639444    0.695000     0.007504
PD14647   PD        0.361667    0.611667    0.695000     0.007504
AU14648   AU        0.361667    0.639444    0.667222     0.007504
PD14649   PD        0.389444    0.611667    0.667222     0.007504
PD14650   PD        0.389444    0.639444    0.695000     0.007504
PD14651   PD        0.417222    0.611667    0.695000     0.007504
AU14652   AU        0.417222    0.639444    0.667222     0.007504
PD14653   PD        0.445000    0.611667    0.667222     0.007504
PD14654   PD        0.445000    0.639444    0.695000     0.007504
PD14655   PD        0.472778    0.611667    0.695000     0.007504
PD14656   PD        0.472778    0.639444    0.667222     0.007504
PD14657   PD        0.500556    0.611667    0.667222     0.007504
PD14658   PD        0.500556    0.639444    0.695000     0.007504
PD14659   PD        0.528333    0.611667    0.695000     0.007504
PD14660   PD        0.528333    0.639444    0.667222     0.007504
AU14661   AU        0.556111    0.611667    0.667222     0.007504
PD14662   PD        0.556111    0.639444    0.695000     0.007504
PD14663   PD        0.583889    0.611667    0.695000     0.007504
PD14664   PD        0.583889    0.639444    0.667222     0.007504
PD14665   PD        0.611667    0.611667    0.667222     0.007504
PD14713   PD        0.333889    0.667222    0.667222     0.007504
PD14717   PD        0.389444    0.667222    0.667222     0.007504
PD14719   PD        0.417222    0.667222    0.695000     0.007504
PD14720   PD        0.417222    0.695000    0.667222     0.007504
PD14721   PD        0.445000    0.667222    0.667222     0.007504
PD14723   PD        0.472778    0.667222    0.695000     0.007504
PD14724   PD        0.472778    0.695000    0.667222     0.007504
PD14725   PD        0.500556    0.667222    0.667222     0.007504
AU14729   AU        0.556111    0.667222    0.667222     0.007504
PD15332   PD        0.417222    0.250556    0.722778     0.007504
PD15336   PD        0.472778    0.250556    0.722778     0.007504
PD15392   PD        0.306111    0.306111    0.722778     0.007504
PD15396   PD        0.361667    0.306111    0.722778     0.007504
PD15397   PD        0.389444    0.278333    0.722778     0.007504
PD15398   PD        0.389444    0.306111    0.750556     0.007504
PD15400   PD        0.417222    0.306111    0.722778     0.007504
PD15401   PD        0.445000    0.278333    0.722778     0.007504
PD15402   PD        0.445000    0.306111    0.750556     0.007504
PD15404   PD        0.472778    0.306111    0.722778     0.007504
PD15405   PD        0.500556    0.278333    0.722778     0.007504
PD15406   PD        0.500556    0.306111    0.750556     0.007504
PD15408   PD        0.528333    0.306111    0.722778     0.007504
PD15412   PD        0.583889    0.306111    0.722778     0.007504
PD15460   PD        0.306111    0.361667    0.722778     0.007504
PD15461   PD        0.333889    0.333889    0.722778     0.007504
AU15462   AU        0.333889    0.361667    0.750556     0.007504
PD15463   PD        0.361667    0.333889    0.750556     0.007504
AU15464   AU        0.361667    0.361667    0.722778     0.007504
PD15465   PD        0.389444    0.333889    0.722778     0.007504
PD15466   PD        0.389444    0.361667    0.750556     0.007504
PD15467   PD        0.417222    0.333889    0.750556     0.007504
PD15468   PD        0.417222    0.361667    0.722778     0.007504
PD15469   PD        0.445000    0.333889    0.722778     0.007504
PD15470   PD        0.445000    0.361667    0.750556     0.007504
PD15471   PD        0.472778    0.333889    0.750556     0.007504
AU15472   AU        0.472778    0.361667    0.722778     0.007504
PD15473   PD        0.500556    0.333889    0.722778     0.007504
PD15474   PD        0.500556    0.361667    0.750556     0.007504
PD15475   PD        0.528333    0.333889    0.750556     0.007504
PD15476   PD        0.528333    0.361667    0.722778     0.007504
PD15477   PD        0.556111    0.333889    0.722778     0.007504
PD15478   PD        0.556111    0.361667    0.750556     0.007504
PD15480   PD        0.583889    0.361667    0.722778     0.007504
PD15524   PD        0.250556    0.417222    0.722778     0.007504
PD15525   PD        0.278333    0.389444    0.722778     0.007504
PD15527   PD        0.306111    0.389444    0.750556     0.007504
PD15528   PD        0.306111    0.417222    0.722778     0.007504
PD15529   PD        0.333889    0.389444    0.722778     0.007504
PD15530   PD        0.333889    0.417222    0.750556     0.007504
PD15531   PD        0.361667    0.389444    0.750556     0.007504
PD15532   PD        0.361667    0.417222    0.722778     0.007504
AU15533   AU        0.389444    0.389444    0.722778     0.007504
PD15534   PD        0.389444    0.417222    0.750556     0.007504
PD15535   PD        0.417222    0.389444    0.750556     0.007504
AU15536   AU        0.417222    0.417222    0.722778     0.007504
AU15537   AU        0.445000    0.389444    0.722778     0.007504
PD15538   PD        0.445000    0.417222    0.750556     0.007504
PD15539   PD        0.472778    0.389444    0.750556     0.007504
PD15540   PD        0.472778    0.417222    0.722778     0.007504
PD15541   PD        0.500556    0.389444    0.722778     0.007504
PD15542   PD        0.500556    0.417222    0.750556     0.007504
PD15543   PD        0.528333    0.389444    0.750556     0.007504
PD15544   PD        0.528333    0.417222    0.722778     0.007504
PD15545   PD        0.556111    0.389444    0.722778     0.007504
PD15546   PD        0.556111    0.417222    0.750556     0.007504
AU15547   AU        0.583889    0.389444    0.750556     0.007504
PD15548   PD        0.583889    0.417222    0.722778     0.007504
PD15549   PD        0.611667    0.389444    0.722778     0.007504
PD15552   PD        0.639444    0.417222    0.722778     0.007504
PD15592   PD        0.250556    0.472778    0.722778     0.007504
PD15593   PD        0.278333    0.445000    0.722778     0.007504
PD15595   PD        0.306111    0.445000    0.750556     0.007504
AU15596   AU        0.306111    0.472778    0.722778     0.007504
PD15597   PD        0.333889    0.445000    0.722778     0.007504
PD15598   PD        0.333889    0.472778    0.750556     0.007504
PD15599   PD        0.361667    0.445000    0.750556     0.007504
PD15600   PD        0.361667    0.472778    0.722778     0.007504
PD15601   PD        0.389444    0.445000    0.722778     0.007504
AU15602   AU        0.389444    0.472778    0.750556     0.007504
AU15603   AU        0.417222    0.445000    0.750556     0.007504
PD15604   PD        0.417222    0.472778    0.722778     0.007504
PD15605   PD        0.445000    0.445000    0.722778     0.007504
PD15606   PD        0.445000    0.472778    0.750556     0.007504
PD15607   PD        0.472778    0.445000    0.750556     0.007504
PD15608   PD        0.472778    0.472778    0.722778     0.007504
PD15609   PD        0.500556    0.445000    0.722778     0.007504
PD15610   PD        0.500556    0.472778    0.750556     0.007504
PD15611   PD        0.528333    0.445000    0.750556     0.007504
PD15612   PD        0.528333    0.472778    0.722778     0.007504
AU15613   AU        0.556111    0.445000    0.722778     0.007504
PD15614   PD        0.556111    0.472778    0.750556     0.007504
PD15615   PD        0.583889    0.445000    0.750556     0.007504
PD15616   PD        0.583889    0.472778    0.722778     0.007504
AU15617   AU        0.611667    0.445000    0.722778     0.007504
PD15620   PD        0.639444    0.472778    0.722778     0.007504
PD15661   PD        0.278333    0.500556    0.722778     0.007504
PD15663   PD        0.306111    0.500556    0.750556     0.007504
PD15664   PD        0.306111    0.528333    0.722778     0.007504
PD15665   PD        0.333889    0.500556    0.722778     0.007504
PD15666   PD        0.333889    0.528333    0.750556     0.007504
PD15667   PD        0.361667    0.500556    0.750556     0.007504
PD15668   PD        0.361667    0.528333    0.722778     0.007504
PD15669   PD        0.389444    0.500556    0.722778     0.007504
PD15670   PD        0.389444    0.528333    0.750556     0.007504
PD15671   PD        0.417222    0.500556    0.750556     0.007504
PD15672   PD        0.417222    0.528333    0.722778     0.007504
PD15673   PD        0.445000    0.500556    0.722778     0.007504
PD15674   PD        0.445000    0.528333    0.750556     0.007504
PD15675   PD        0.472778    0.500556    0.750556     0.007504
PD15676   PD        0.472778    0.528333    0.722778     0.007504
PD15677   PD        0.500556    0.500556    0.722778     0.007504
PD15678   PD        0.500556    0.528333    0.750556     0.007504
PD15679   PD        0.528333    0.500556    0.750556     0.007504
PD15680   PD        0.528333    0.528333    0.722778     0.007504
PD15681   PD        0.556111    0.500556    0.722778     0.007504
PD15682   PD        0.556111    0.528333    0.750556     0.007504
PD15683   PD        0.583889    0.500556    0.750556     0.007504
PD15684   PD        0.583889    0.528333    0.722778     0.007504
PD15685   PD        0.611667    0.500556    0.722778     0.007504
PD15732   PD        0.306111    0.583889    0.722778     0.007504
PD15733   PD        0.333889    0.556111    0.722778     0.007504
PD15735   PD        0.361667    0.556111    0.750556     0.007504
PD15736   PD        0.361667    0.583889    0.722778     0.007504
PD15737   PD        0.389444    0.556111    0.722778     0.007504
PD15738   PD        0.389444    0.583889    0.750556     0.007504
PD15739   PD        0.417222    0.556111    0.750556     0.007504
PD15740   PD        0.417222    0.583889    0.722778     0.007504
PD15741   PD        0.445000    0.556111    0.722778     0.007504
PD15742   PD        0.445000    0.583889    0.750556     0.007504
PD15743   PD        0.472778    0.556111    0.750556     0.007504
AU15744   AU        0.472778    0.583889    0.722778     0.007504
PD15745   PD        0.500556    0.556111    0.722778     0.007504
PD15746   PD        0.500556    0.583889    0.750556     0.007504
PD15747   PD        0.528333    0.556111    0.750556     0.007504
PD15748   PD        0.528333    0.583889    0.722778     0.007504
AU15749   AU        0.556111    0.556111    0.722778     0.007504
PD15752   PD        0.583889    0.583889    0.722778     0.007504
PD15805   PD        0.389444    0.611667    0.722778     0.007504
PD15808   PD        0.417222    0.639444    0.722778     0.007504
PD15809   PD        0.445000    0.611667    0.722778     0.007504
PD15812   PD        0.472778    0.639444    0.722778     0.007504
PD15813   PD        0.500556    0.611667    0.722778     0.007504
PD16692   PD        0.417222    0.417222    0.778333     0.007504
PD16693   PD        0.445000    0.389444    0.778333     0.007504
PD16696   PD        0.472778    0.417222    0.778333     0.007504
PD16757   PD        0.389444    0.445000    0.778333     0.007504
PD16760   PD        0.417222    0.472778    0.778333     0.007504
PD16761   PD        0.445000    0.445000    0.778333     0.007504
PD16764   PD        0.472778    0.472778    0.778333     0.007504
PD16765   PD        0.500556    0.445000    0.778333     0.007504
PD16829   PD        0.445000    0.500556    0.778333     0.007504
