data_00001
_audit_creation_method   'DISCUS'

_data_chemical_name_common 'Au.cell: lattice parameter from Pearson85'

_cell_length_a             53.0257
_cell_length_b             53.0257
_cell_length_c             53.0257
_cell_angle_alpha     90.0000
_cell_angle_beta      90.0000
_cell_angle_gamma     90.0000

_symmetry_space_group_name_H-M   'P1              '

loop_
_atom_site_label
_atom_site_symbol
_atom_site_fract_x
_atom_site_fract_y
_atom_site_fract_z
_atom_site_u_iso_or_equiv
PD1   PD        0.379623    0.271834    0.041081     0.007504
PD2   PD        0.461502    0.270153    0.039036     0.007504
PD3   PD        0.536947    0.273125    0.039986     0.007504
PD4   PD        0.305122    0.347074    0.041990     0.007504
AU5   AU        0.342465    0.308347    0.037785     0.007504
PD6   PD        0.381515    0.349260    0.041126     0.007504
PD7   PD        0.422957    0.311675    0.036426     0.007504
PD8   PD        0.462070    0.348158    0.037451     0.007504
PD9   PD        0.500756    0.308735    0.037890     0.007504
PD10   PD        0.535511    0.347167    0.038434     0.007504
PD11   PD        0.576181    0.309274    0.041385     0.007504
PD12   PD        0.614310    0.345741    0.039559     0.007504
PD13   PD        0.268771    0.388815    0.038997     0.007504
PD14   PD        0.306832    0.424895    0.038710     0.007504
PD15   PD        0.345586    0.387969    0.037159     0.007504
PD16   PD        0.385452    0.424974    0.040298     0.007504
PD17   PD        0.421486    0.387139    0.039603     0.007504
PD18   PD        0.424176    0.425796    0.004511     0.007504
PD19   PD        0.462250    0.388386    0.003248     0.007504
PD20   PD        0.461281    0.425462    0.040214     0.007504
PD21   PD        0.499609    0.386877    0.040294     0.007504
PD22   PD        0.498536    0.425057    0.004888     0.007504
PD23   PD        0.540919    0.423587    0.038028     0.007504
PD24   PD        0.575363    0.384797    0.034854     0.007504
PD25   PD        0.616889    0.425127    0.037365     0.007504
PD26   PD        0.650225    0.383915    0.038856     0.007504
PD27   PD        0.268809    0.464496    0.040229     0.007504
PD28   PD        0.308298    0.504658    0.040595     0.007504
PD29   PD        0.344885    0.466242    0.040637     0.007504
PD30   PD        0.384845    0.464647    0.004673     0.007504
PD31   PD        0.385708    0.500797    0.041174     0.007504
PD32   PD        0.421833    0.463094    0.041190     0.007504
PD33   PD        0.423964    0.504243    0.006092     0.007504
PD34   PD        0.461244    0.464371    0.005420     0.007504
PD35   PD        0.463732    0.503311    0.040132     0.007504
PD36   PD        0.498498    0.465144    0.038696     0.007504
PD37   PD        0.498872    0.502168    0.000769     0.007504
PD38   PD        0.538671    0.462674    0.003857     0.007504
AU39   AU        0.537879    0.502741    0.039287     0.007504
PD40   PD        0.580555    0.465236    0.038342     0.007504
AU41   AU        0.619096    0.501882    0.039265     0.007504
PD42   PD        0.658404    0.461903    0.039617     0.007504
PD43   PD        0.268647    0.545784    0.039472     0.007504
PD44   PD        0.308681    0.583395    0.039862     0.007504
PD45   PD        0.345505    0.543056    0.037907     0.007504
PD46   PD        0.384257    0.584133    0.040241     0.007504
PD47   PD        0.421677    0.544567    0.037410     0.007504
PD48   PD        0.461434    0.539702    0.003151     0.007504
PD49   PD        0.462851    0.580019    0.040397     0.007504
PD50   PD        0.499406    0.543603    0.039718     0.007504
PD51   PD        0.539710    0.582928    0.039133     0.007504
PD52   PD        0.581804    0.540714    0.039527     0.007504
PD53   PD        0.619355    0.580158    0.041470     0.007504
PD54   PD        0.653909    0.544400    0.039370     0.007504
PD55   PD        0.342707    0.622300    0.041905     0.007504
PD56   PD        0.384289    0.661373    0.043356     0.007504
PD57   PD        0.422114    0.625156    0.039658     0.007504
PD58   PD        0.462088    0.658482    0.040929     0.007504
PD59   PD        0.500111    0.618690    0.041107     0.007504
PD60   PD        0.539765    0.655431    0.044098     0.007504
PD61   PD        0.579862    0.619518    0.041144     0.007504
PD62   PD        0.304656    0.196734    0.115278     0.007504
PD63   PD        0.383203    0.192945    0.115290     0.007504
PD64   PD        0.421633    0.157196    0.113162     0.007504
PD65   PD        0.419608    0.194828    0.076880     0.007504
PD66   PD        0.461409    0.194453    0.112141     0.007504
PD67   PD        0.500065    0.157431    0.114422     0.007504
PD68   PD        0.498771    0.196085    0.076728     0.007504
PD69   PD        0.537361    0.192827    0.114422     0.007504
PD70   PD        0.614654    0.195630    0.118061     0.007504
PD71   PD        0.228964    0.272640    0.113436     0.007504
PD72   PD        0.266702    0.235205    0.117263     0.007504
PD73   PD        0.272139    0.268116    0.075663     0.007504
PD74   PD        0.307357    0.270427    0.114555     0.007504
PD75   PD        0.342267    0.234709    0.115689     0.007504
PD76   PD        0.344180    0.271316    0.076248     0.007504
PD77   PD        0.380921    0.232320    0.078681     0.007504
AU78   AU        0.381764    0.269930    0.113620     0.007504
AU79   AU        0.422916    0.231514    0.112779     0.007504
PD80   PD        0.421459    0.269449    0.074037     0.007504
PD81   PD        0.459718    0.232356    0.073644     0.007504
AU82   AU        0.460314    0.269853    0.112472     0.007504
PD83   PD        0.498535    0.230773    0.114310     0.007504
PD84   PD        0.499314    0.270730    0.076759     0.007504
PD85   PD        0.539301    0.232962    0.079538     0.007504
PD86   PD        0.536740    0.269273    0.115975     0.007504
PD87   PD        0.576894    0.230138    0.114622     0.007504
PD88   PD        0.575434    0.271302    0.078058     0.007504
PD89   PD        0.614908    0.271945    0.115755     0.007504
PD90   PD        0.653233    0.233764    0.115393     0.007504
PD91   PD        0.656992    0.274101    0.078571     0.007504
PD92   PD        0.692740    0.271570    0.115772     0.007504
PD93   PD        0.193874    0.313337    0.115427     0.007504
PD94   PD        0.230683    0.349533    0.114914     0.007504
PD95   PD        0.265812    0.310108    0.114576     0.007504
PD96   PD        0.264950    0.348929    0.076811     0.007504
PD97   PD        0.304921    0.309925    0.080494     0.007504
PD98   PD        0.307120    0.348961    0.111676     0.007504
PD99   PD        0.344218    0.309493    0.114423     0.007504
PD100   PD        0.342848    0.350095    0.076578     0.007504
PD101   PD        0.383378    0.310066    0.073603     0.007504
AU102   AU        0.383022    0.347134    0.112859     0.007504
AU103   AU        0.422186    0.308632    0.109393     0.007504
PD104   PD        0.421060    0.346549    0.076471     0.007504
PD105   PD        0.460571    0.309437    0.073062     0.007504
AU106   AU        0.460316    0.346144    0.112225     0.007504
PD107   PD        0.498705    0.307430    0.111781     0.007504
PD108   PD        0.500473    0.347734    0.076284     0.007504
PD109   PD        0.539146    0.308741    0.076225     0.007504
AU110   AU        0.537083    0.348504    0.111704     0.007504
PD111   PD        0.574702    0.310072    0.113414     0.007504
PD112   PD        0.575046    0.349056    0.075192     0.007504
PD113   PD        0.614379    0.310111    0.078236     0.007504
PD114   PD        0.612586    0.348782    0.112614     0.007504
PD115   PD        0.652751    0.311870    0.115149     0.007504
PD116   PD        0.651470    0.347059    0.078525     0.007504
PD117   PD        0.689847    0.347596    0.115325     0.007504
PD118   PD        0.725528    0.308771    0.116006     0.007504
PD119   PD        0.156619    0.427396    0.116169     0.007504
PD120   PD        0.194179    0.390833    0.114683     0.007504
PD121   PD        0.191790    0.426220    0.075526     0.007504
PD122   PD        0.232304    0.388484    0.078617     0.007504
AU123   AU        0.232867    0.429445    0.114535     0.007504
PD124   PD        0.268790    0.386724    0.114296     0.007504
PD125   PD        0.270901    0.426342    0.076555     0.007504
PD126   PD        0.305974    0.388006    0.076024     0.007504
AU127   AU        0.307652    0.427214    0.112448     0.007504
PD128   PD        0.343741    0.389060    0.115832     0.007504
PD129   PD        0.343497    0.425717    0.075137     0.007504
PD130   PD        0.381701    0.385802    0.077594     0.007504
PD131   PD        0.381238    0.422676    0.113916     0.007504
PD132   PD        0.422055    0.382588    0.113297     0.007504
PD133   PD        0.423103    0.423491    0.074726     0.007504
PD134   PD        0.460371    0.383822    0.077057     0.007504
PD135   PD        0.460025    0.426344    0.110605     0.007504
AU136   AU        0.500057    0.386764    0.111016     0.007504
PD137   PD        0.500405    0.425235    0.076637     0.007504
PD138   PD        0.538317    0.386129    0.076602     0.007504
AU139   AU        0.539851    0.427194    0.111194     0.007504
PD140   PD        0.575846    0.386699    0.115061     0.007504
AU141   AU        0.578110    0.424770    0.074905     0.007504
PD142   PD        0.613908    0.386095    0.076495     0.007504
PD143   PD        0.611052    0.423435    0.117345     0.007504
AU144   AU        0.651534    0.385913    0.116608     0.007504
PD145   PD        0.649986    0.423665    0.075811     0.007504
PD146   PD        0.688328    0.384312    0.075917     0.007504
PD147   PD        0.691480    0.424479    0.114283     0.007504
AU148   AU        0.728573    0.385078    0.113442     0.007504
PD149   PD        0.727507    0.426636    0.077112     0.007504
PD150   PD        0.768563    0.422938    0.114023     0.007504
PD151   PD        0.152453    0.506017    0.118874     0.007504
AU152   AU        0.191287    0.468191    0.115661     0.007504
PD153   PD        0.191651    0.505397    0.080350     0.007504
PD154   PD        0.227578    0.468787    0.075729     0.007504
PD155   PD        0.229716    0.505854    0.115430     0.007504
PD156   PD        0.270238    0.466544    0.113049     0.007504
AU157   AU        0.268119    0.504573    0.075857     0.007504
PD158   PD        0.306486    0.466427    0.077115     0.007504
PD159   PD        0.303612    0.504088    0.111157     0.007504
PD160   PD        0.346390    0.462294    0.112699     0.007504
AU161   AU        0.346737    0.505433    0.077399     0.007504
PD162   PD        0.383837    0.463807    0.077991     0.007504
AU163   AU        0.386040    0.505321    0.114250     0.007504
AU164   AU        0.422869    0.462576    0.111838     0.007504
AU165   AU        0.424551    0.504090    0.075062     0.007504
AU166   AU        0.462032    0.463980    0.073997     0.007504
AU167   AU        0.462138    0.503312    0.113544     0.007504
PD168   PD        0.501469    0.465218    0.110140     0.007504
PD169   PD        0.499590    0.503652    0.076218     0.007504
AU170   AU        0.538950    0.463139    0.074841     0.007504
PD171   PD        0.538170    0.504792    0.113133     0.007504
AU172   AU        0.576512    0.464933    0.114445     0.007504
AU173   AU        0.578145    0.501827    0.074913     0.007504
PD174   PD        0.617191    0.462932    0.073839     0.007504
AU175   AU        0.617128    0.500827    0.113234     0.007504
PD176   PD        0.654857    0.459716    0.110534     0.007504
PD177   PD        0.656420    0.502300    0.077353     0.007504
PD178   PD        0.692726    0.463666    0.078843     0.007504
PD179   PD        0.691935    0.503085    0.117532     0.007504
PD180   PD        0.727317    0.462293    0.117028     0.007504
PD181   PD        0.730772    0.501454    0.081411     0.007504
PD182   PD        0.768968    0.500783    0.118657     0.007504
PD183   PD        0.191651    0.543097    0.116414     0.007504
PD184   PD        0.229225    0.542369    0.079545     0.007504
AU185   AU        0.228559    0.583945    0.117065     0.007504
PD186   PD        0.270274    0.544157    0.113810     0.007504
PD187   PD        0.269144    0.584166    0.077046     0.007504
PD188   PD        0.309149    0.546148    0.074153     0.007504
PD189   PD        0.306166    0.580332    0.113910     0.007504
PD190   PD        0.342904    0.541289    0.114638     0.007504
PD191   PD        0.345268    0.583610    0.076746     0.007504
AU192   AU        0.383233    0.544151    0.076171     0.007504
PD193   PD        0.383787    0.579416    0.114552     0.007504
PD194   PD        0.423607    0.544255    0.110542     0.007504
PD195   PD        0.423448    0.582366    0.075554     0.007504
PD196   PD        0.464093    0.542898    0.076227     0.007504
PD197   PD        0.460967    0.579421    0.110376     0.007504
PD198   PD        0.502983    0.544569    0.112128     0.007504
PD199   PD        0.499172    0.580917    0.076997     0.007504
AU200   AU        0.539148    0.543656    0.073803     0.007504
PD201   PD        0.539086    0.580812    0.112590     0.007504
AU202   AU        0.576366    0.542192    0.113051     0.007504
PD203   PD        0.580075    0.581918    0.075973     0.007504
PD204   PD        0.618594    0.540484    0.078483     0.007504
AU205   AU        0.620399    0.580748    0.113895     0.007504
PD206   PD        0.656868    0.541879    0.113660     0.007504
PD207   PD        0.656049    0.582435    0.077065     0.007504
PD208   PD        0.692994    0.541119    0.076174     0.007504
PD209   PD        0.695070    0.579134    0.116268     0.007504
PD210   PD        0.729764    0.540739    0.115682     0.007504
PD211   PD        0.189255    0.619900    0.120271     0.007504
PD212   PD        0.229938    0.657187    0.119210     0.007504
AU213   AU        0.268331    0.620832    0.116807     0.007504
PD214   PD        0.267393    0.659642    0.081771     0.007504
PD215   PD        0.306245    0.620303    0.078043     0.007504
PD216   PD        0.306071    0.660743    0.113443     0.007504
AU217   AU        0.345756    0.623615    0.113849     0.007504
PD218   PD        0.345929    0.661535    0.077298     0.007504
PD219   PD        0.386086    0.622192    0.075902     0.007504
PD220   PD        0.383527    0.659694    0.114514     0.007504
AU221   AU        0.420888    0.619748    0.112864     0.007504
PD222   PD        0.423709    0.662568    0.077547     0.007504
PD223   PD        0.461026    0.621135    0.078470     0.007504
PD224   PD        0.458054    0.660587    0.114482     0.007504
AU225   AU        0.501929    0.619917    0.113332     0.007504
PD226   PD        0.500120    0.659948    0.078774     0.007504
PD227   PD        0.539628    0.617729    0.077561     0.007504
PD228   PD        0.538180    0.658971    0.116660     0.007504
AU229   AU        0.578024    0.621106    0.114971     0.007504
PD230   PD        0.576644    0.659413    0.079261     0.007504
PD231   PD        0.616845    0.619441    0.078477     0.007504
AU232   AU        0.616881    0.659500    0.113038     0.007504
PD233   PD        0.654278    0.619883    0.117592     0.007504
PD234   PD        0.656714    0.656232    0.078696     0.007504
PD235   PD        0.694531    0.654567    0.116553     0.007504
PD236   PD        0.731052    0.617866    0.118098     0.007504
PD237   PD        0.268560    0.697189    0.117952     0.007504
PD238   PD        0.305721    0.735078    0.117473     0.007504
PD239   PD        0.346734    0.698698    0.117541     0.007504
PD240   PD        0.385409    0.696545    0.080385     0.007504
PD241   PD        0.385264    0.736335    0.117877     0.007504
PD242   PD        0.424196    0.700377    0.116513     0.007504
PD243   PD        0.421559    0.737559    0.081198     0.007504
PD244   PD        0.461013    0.699484    0.080099     0.007504
PD245   PD        0.460716    0.739224    0.118491     0.007504
PD246   PD        0.500756    0.696658    0.116922     0.007504
PD247   PD        0.501879    0.736883    0.079404     0.007504
PD248   PD        0.538126    0.697207    0.079243     0.007504
AU249   AU        0.539659    0.734840    0.117237     0.007504
PD250   PD        0.578632    0.698241    0.118231     0.007504
PD251   PD        0.618471    0.735309    0.116558     0.007504
PD252   PD        0.657610    0.695865    0.116615     0.007504
PD253   PD        0.421755    0.774595    0.118786     0.007504
PD254   PD        0.501482    0.775414    0.116401     0.007504
PD255   PD        0.298921    0.120983    0.191032     0.007504
PD256   PD        0.382425    0.114501    0.189828     0.007504
PD257   PD        0.422529    0.081631    0.188633     0.007504
PD258   PD        0.422180    0.119614    0.148960     0.007504
PD259   PD        0.457872    0.118952    0.188423     0.007504
PD260   PD        0.493913    0.082854    0.192306     0.007504
PD261   PD        0.497047    0.120910    0.151072     0.007504
PD262   PD        0.533583    0.117267    0.191124     0.007504
PD263   PD        0.615904    0.118089    0.192736     0.007504
PD264   PD        0.227271    0.197223    0.192359     0.007504
PD265   PD        0.260660    0.158655    0.192871     0.007504
PD266   PD        0.263861    0.194684    0.152890     0.007504
PD267   PD        0.301369    0.156123    0.152037     0.007504
PD268   PD        0.301457    0.193614    0.189082     0.007504
AU269   AU        0.340895    0.152433    0.188221     0.007504
PD270   PD        0.342237    0.191374    0.152615     0.007504
PD271   PD        0.382575    0.156120    0.150821     0.007504
PD272   PD        0.379778    0.191943    0.189407     0.007504
AU273   AU        0.419173    0.154067    0.188678     0.007504
PD274   PD        0.421492    0.192337    0.150293     0.007504
PD275   PD        0.459634    0.158155    0.151995     0.007504
PD276   PD        0.461118    0.192873    0.187439     0.007504
AU277   AU        0.497991    0.155239    0.190592     0.007504
PD278   PD        0.498890    0.193577    0.152794     0.007504
PD279   PD        0.536367    0.155390    0.152097     0.007504
PD280   PD        0.537566    0.192494    0.190203     0.007504
AU281   AU        0.577972    0.156036    0.190058     0.007504
PD282   PD        0.575475    0.194808    0.152257     0.007504
PD283   PD        0.616165    0.159108    0.153524     0.007504
PD284   PD        0.615308    0.196355    0.188238     0.007504
PD285   PD        0.653409    0.158201    0.191202     0.007504
PD286   PD        0.654998    0.194387    0.152803     0.007504
PD287   PD        0.692966    0.191971    0.192532     0.007504
PD288   PD        0.152247    0.273529    0.189922     0.007504
PD289   PD        0.190876    0.239203    0.191119     0.007504
PD290   PD        0.192043    0.276634    0.152699     0.007504
PD291   PD        0.224809    0.232950    0.150682     0.007504
PD292   PD        0.230577    0.273339    0.188657     0.007504
PD293   PD        0.263695    0.230871    0.187448     0.007504
PD294   PD        0.266712    0.272640    0.150282     0.007504
PD295   PD        0.302650    0.234445    0.154627     0.007504
PD296   PD        0.303508    0.270319    0.188844     0.007504
AU297   AU        0.343356    0.232894    0.191858     0.007504
PD298   PD        0.344393    0.269332    0.153424     0.007504
PD299   PD        0.384116    0.229395    0.151250     0.007504
AU300   AU        0.383473    0.267081    0.187522     0.007504
AU301   AU        0.421242    0.230964    0.189304     0.007504
PD302   PD        0.422088    0.268434    0.150854     0.007504
AU303   AU        0.461091    0.231469    0.151346     0.007504
PD304   PD        0.459303    0.269964    0.188506     0.007504
PD305   PD        0.498585    0.229522    0.189176     0.007504
PD306   PD        0.500000    0.269724    0.153216     0.007504
PD307   PD        0.534971    0.229863    0.152436     0.007504
PD308   PD        0.533848    0.269742    0.189516     0.007504
PD309   PD        0.574685    0.229351    0.191302     0.007504
PD310   PD        0.572555    0.267087    0.153204     0.007504
AU311   AU        0.614809    0.234515    0.153663     0.007504
PD312   PD        0.617077    0.269825    0.193564     0.007504
AU313   AU        0.654596    0.231492    0.191030     0.007504
AU314   AU        0.655429    0.270219    0.153458     0.007504
PD315   PD        0.691062    0.230691    0.152486     0.007504
PD316   PD        0.691771    0.269002    0.190502     0.007504
PD317   PD        0.727520    0.231466    0.191273     0.007504
PD318   PD        0.728958    0.270522    0.154276     0.007504
PD319   PD        0.765799    0.270754    0.190343     0.007504
PD320   PD        0.116248    0.315711    0.191894     0.007504
PD321   PD        0.152184    0.311172    0.151412     0.007504
PD322   PD        0.151745    0.352269    0.187810     0.007504
PD323   PD        0.187701    0.313091    0.190186     0.007504
AU324   AU        0.191021    0.350170    0.152436     0.007504
PD325   PD        0.231691    0.310826    0.152296     0.007504
PD326   PD        0.231028    0.348464    0.189064     0.007504
PD327   PD        0.267912    0.313202    0.188239     0.007504
PD328   PD        0.267702    0.348850    0.150589     0.007504
AU329   AU        0.304535    0.308730    0.150943     0.007504
AU330   AU        0.305651    0.348401    0.188834     0.007504
AU331   AU        0.343705    0.308294    0.189073     0.007504
AU332   AU        0.343045    0.348585    0.149805     0.007504
AU333   AU        0.385574    0.305769    0.151697     0.007504
AU334   AU        0.383661    0.346069    0.185253     0.007504
AU335   AU        0.421078    0.306296    0.192120     0.007504
AU336   AU        0.421845    0.345676    0.150479     0.007504
AU337   AU        0.462133    0.306890    0.151304     0.007504
AU338   AU        0.460789    0.345556    0.188556     0.007504
AU339   AU        0.497568    0.307499    0.188626     0.007504
AU340   AU        0.498134    0.347651    0.149136     0.007504
AU341   AU        0.536450    0.308502    0.150106     0.007504
AU342   AU        0.537628    0.344529    0.187807     0.007504
AU343   AU        0.573645    0.307543    0.191274     0.007504
PD344   PD        0.576424    0.349317    0.151385     0.007504
AU345   AU        0.612846    0.308279    0.153969     0.007504
AU346   AU        0.612342    0.346735    0.189708     0.007504
PD347   PD        0.650180    0.309516    0.192238     0.007504
AU348   AU        0.651741    0.345410    0.154076     0.007504
PD349   PD        0.689462    0.308035    0.153722     0.007504
PD350   PD        0.691063    0.346027    0.191434     0.007504
PD351   PD        0.729176    0.309056    0.190594     0.007504
PD352   PD        0.728467    0.347350    0.151461     0.007504
PD353   PD        0.765278    0.309405    0.155638     0.007504
AU354   AU        0.766890    0.346246    0.190955     0.007504
PD355   PD        0.805068    0.306118    0.191752     0.007504
PD356   PD        0.078473    0.429040    0.189316     0.007504
PD357   PD        0.117961    0.393450    0.191450     0.007504
PD358   PD        0.116338    0.430002    0.151686     0.007504
PD359   PD        0.153828    0.389927    0.151262     0.007504
PD360   PD        0.152212    0.430770    0.190462     0.007504
AU361   AU        0.190861    0.389944    0.187243     0.007504
AU362   AU        0.193910    0.430661    0.150787     0.007504
PD363   PD        0.229281    0.391622    0.152302     0.007504
PD364   PD        0.229267    0.428340    0.188919     0.007504
AU365   AU        0.267523    0.386554    0.190474     0.007504
AU366   AU        0.270308    0.427737    0.152394     0.007504
PD367   PD        0.305670    0.387298    0.153921     0.007504
PD368   PD        0.306657    0.425854    0.191597     0.007504
AU369   AU        0.345079    0.385973    0.187921     0.007504
PD370   PD        0.343154    0.426184    0.152795     0.007504
PD371   PD        0.383043    0.385342    0.151165     0.007504
AU372   AU        0.384383    0.427343    0.187905     0.007504
AU373   AU        0.423244    0.385113    0.188322     0.007504
AU374   AU        0.422842    0.420369    0.149122     0.007504
PD375   PD        0.461122    0.385238    0.147076     0.007504
AU376   AU        0.461554    0.422491    0.188188     0.007504
AU377   AU        0.498582    0.384674    0.189303     0.007504
AU378   AU        0.500172    0.425503    0.148660     0.007504
AU379   AU        0.536776    0.389497    0.151557     0.007504
AU380   AU        0.536314    0.424575    0.189626     0.007504
AU381   AU        0.576176    0.388000    0.190309     0.007504
PD382   PD        0.575781    0.426642    0.153349     0.007504
PD383   PD        0.611001    0.387691    0.152747     0.007504
PD384   PD        0.615250    0.423150    0.191272     0.007504
PD385   PD        0.651332    0.384754    0.191107     0.007504
PD386   PD        0.652227    0.421916    0.155414     0.007504
PD387   PD        0.693347    0.384232    0.150871     0.007504
AU388   AU        0.689749    0.422719    0.189797     0.007504
PD389   PD        0.724486    0.384833    0.190523     0.007504
PD390   PD        0.728555    0.423812    0.153665     0.007504
PD391   PD        0.763060    0.385345    0.154661     0.007504
PD392   PD        0.766075    0.424354    0.189753     0.007504
PD393   PD        0.804935    0.384199    0.189568     0.007504
PD394   PD        0.803719    0.420634    0.153289     0.007504
PD395   PD        0.843025    0.420143    0.191472     0.007504
PD396   PD        0.077971    0.503892    0.194609     0.007504
PD397   PD        0.116513    0.469315    0.191663     0.007504
PD398   PD        0.114840    0.505934    0.154902     0.007504
PD399   PD        0.153413    0.467497    0.152528     0.007504
PD400   PD        0.154626    0.505140    0.192628     0.007504
AU401   AU        0.190850    0.468306    0.188929     0.007504
PD402   PD        0.192509    0.506058    0.152831     0.007504
AU403   AU        0.233036    0.468752    0.151135     0.007504
AU404   AU        0.229265    0.505791    0.191292     0.007504
AU405   AU        0.267578    0.467266    0.190633     0.007504
PD406   PD        0.269112    0.506860    0.150917     0.007504
AU407   AU        0.307246    0.465560    0.150604     0.007504
PD408   PD        0.306928    0.503862    0.188059     0.007504
AU409   AU        0.343150    0.467308    0.189478     0.007504
AU410   AU        0.345684    0.503053    0.149924     0.007504
AU411   AU        0.385240    0.462405    0.147181     0.007504
AU412   AU        0.388511    0.500805    0.187034     0.007504
AU413   AU        0.426479    0.461958    0.189868     0.007504
AU414   AU        0.424059    0.502446    0.151332     0.007504
AU415   AU        0.462425    0.463042    0.148439     0.007504
AU416   AU        0.462218    0.502952    0.190141     0.007504
AU417   AU        0.499446    0.464352    0.189333     0.007504
AU418   AU        0.499134    0.503204    0.150386     0.007504
AU419   AU        0.536920    0.463511    0.151439     0.007504
AU420   AU        0.541065    0.502985    0.188618     0.007504
AU421   AU        0.576058    0.462496    0.191716     0.007504
PD422   PD        0.574696    0.499385    0.153817     0.007504
AU423   AU        0.615224    0.461271    0.155777     0.007504
AU424   AU        0.612887    0.502665    0.188894     0.007504
AU425   AU        0.654984    0.462769    0.191858     0.007504
PD426   PD        0.654750    0.501490    0.154122     0.007504
AU427   AU        0.690042    0.461543    0.152471     0.007504
PD428   PD        0.693597    0.500934    0.191233     0.007504
PD429   PD        0.730289    0.461989    0.188865     0.007504
AU430   AU        0.728294    0.500887    0.153190     0.007504
AU431   AU        0.768790    0.460187    0.151098     0.007504
AU432   AU        0.770083    0.500718    0.191547     0.007504
AU433   AU        0.807466    0.459370    0.188856     0.007504
PD434   PD        0.808068    0.502842    0.154003     0.007504
PD435   PD        0.847012    0.500971    0.189974     0.007504
PD436   PD        0.116536    0.543906    0.195145     0.007504
PD437   PD        0.153337    0.541968    0.157177     0.007504
PD438   PD        0.154375    0.583071    0.193819     0.007504
PD439   PD        0.192160    0.543212    0.193057     0.007504
PD440   PD        0.191426    0.580552    0.154328     0.007504
PD441   PD        0.232681    0.544506    0.151442     0.007504
AU442   AU        0.229310    0.584357    0.191302     0.007504
PD443   PD        0.271936    0.543819    0.192159     0.007504
PD444   PD        0.270578    0.581308    0.155173     0.007504
PD445   PD        0.306337    0.543496    0.150988     0.007504
AU446   AU        0.308352    0.581263    0.190185     0.007504
AU447   AU        0.345725    0.538220    0.187612     0.007504
AU448   AU        0.346265    0.582413    0.150487     0.007504
PD449   PD        0.384915    0.542260    0.151311     0.007504
AU450   AU        0.383597    0.581737    0.187676     0.007504
AU451   AU        0.421867    0.542609    0.187356     0.007504
AU452   AU        0.425100    0.581205    0.147504     0.007504
AU453   AU        0.463058    0.541929    0.150377     0.007504
AU454   AU        0.462524    0.581846    0.189343     0.007504
AU455   AU        0.501241    0.537912    0.188151     0.007504
AU456   AU        0.501977    0.581141    0.151161     0.007504
PD457   PD        0.537663    0.544327    0.152845     0.007504
AU458   AU        0.538863    0.579201    0.188728     0.007504
AU459   AU        0.577640    0.539005    0.189640     0.007504
AU460   AU        0.577720    0.580755    0.149692     0.007504
AU461   AU        0.614211    0.538512    0.149812     0.007504
AU462   AU        0.614036    0.579431    0.187772     0.007504
AU463   AU        0.656092    0.539392    0.189733     0.007504
AU464   AU        0.655200    0.578887    0.153357     0.007504
PD465   PD        0.691411    0.540438    0.152291     0.007504
PD466   PD        0.695328    0.577961    0.191332     0.007504
PD467   PD        0.730038    0.539721    0.190447     0.007504
PD468   PD        0.730575    0.578926    0.153842     0.007504
PD469   PD        0.766632    0.541170    0.152063     0.007504
PD470   PD        0.766987    0.579314    0.193640     0.007504
PD471   PD        0.804028    0.540486    0.191151     0.007504
PD472   PD        0.116295    0.621357    0.194531     0.007504
PD473   PD        0.150464    0.620071    0.155539     0.007504
PD474   PD        0.153484    0.656936    0.194408     0.007504
PD475   PD        0.193051    0.620281    0.191896     0.007504
PD476   PD        0.192143    0.656629    0.156674     0.007504
PD477   PD        0.230637    0.620717    0.154046     0.007504
PD478   PD        0.231669    0.658253    0.193373     0.007504
PD479   PD        0.270203    0.621561    0.193042     0.007504
PD480   PD        0.270829    0.660168    0.153462     0.007504
AU481   AU        0.306368    0.621538    0.153574     0.007504
PD482   PD        0.308122    0.658021    0.193143     0.007504
PD483   PD        0.347693    0.619382    0.190295     0.007504
AU484   AU        0.343970    0.659207    0.155517     0.007504
PD485   PD        0.383422    0.619109    0.150326     0.007504
AU486   AU        0.384706    0.657112    0.187934     0.007504
AU487   AU        0.422090    0.618247    0.188019     0.007504
AU488   AU        0.422144    0.661353    0.151778     0.007504
AU489   AU        0.462538    0.621493    0.149473     0.007504
AU490   AU        0.461711    0.658136    0.187237     0.007504
AU491   AU        0.501908    0.618927    0.188233     0.007504
AU492   AU        0.502361    0.658312    0.153425     0.007504
PD493   PD        0.539443    0.619776    0.152094     0.007504
AU494   AU        0.541359    0.657707    0.191675     0.007504
AU495   AU        0.577379    0.620009    0.189589     0.007504
PD496   PD        0.577316    0.658519    0.153804     0.007504
AU497   AU        0.616590    0.618062    0.153882     0.007504
AU498   AU        0.615580    0.655788    0.193558     0.007504
AU499   AU        0.655462    0.617158    0.190605     0.007504
PD500   PD        0.657392    0.656244    0.155209     0.007504
PD501   PD        0.694755    0.616824    0.155886     0.007504
PD502   PD        0.691952    0.656504    0.193821     0.007504
PD503   PD        0.730430    0.616950    0.192396     0.007504
PD504   PD        0.730754    0.655833    0.155375     0.007504
PD505   PD        0.767444    0.615529    0.153645     0.007504
PD506   PD        0.767814    0.654967    0.192782     0.007504
PD507   PD        0.806620    0.615021    0.193346     0.007504
PD508   PD        0.194435    0.695068    0.190226     0.007504
PD509   PD        0.230724    0.697803    0.155229     0.007504
PD510   PD        0.231692    0.734957    0.192429     0.007504
PD511   PD        0.269233    0.696470    0.193580     0.007504
PD512   PD        0.268883    0.731790    0.155657     0.007504
PD513   PD        0.307302    0.696574    0.153776     0.007504
PD514   PD        0.306088    0.733188    0.189831     0.007504
PD515   PD        0.345677    0.697085    0.191010     0.007504
PD516   PD        0.343413    0.736677    0.151886     0.007504
PD517   PD        0.382707    0.698265    0.153160     0.007504
PD518   PD        0.386174    0.736749    0.190732     0.007504
PD519   PD        0.423299    0.698090    0.188416     0.007504
AU520   AU        0.423203    0.737217    0.154510     0.007504
PD521   PD        0.459339    0.698168    0.151134     0.007504
PD522   PD        0.463153    0.735782    0.193451     0.007504
AU523   AU        0.497589    0.694925    0.191017     0.007504
AU524   AU        0.499265    0.736757    0.153718     0.007504
PD525   PD        0.538379    0.697600    0.156177     0.007504
AU526   AU        0.540314    0.738168    0.190178     0.007504
AU527   AU        0.577417    0.698435    0.191054     0.007504
PD528   PD        0.581269    0.735386    0.156663     0.007504
PD529   PD        0.619195    0.693370    0.153369     0.007504
PD530   PD        0.618876    0.735026    0.193229     0.007504
PD531   PD        0.654330    0.696229    0.195803     0.007504
PD532   PD        0.656370    0.732522    0.155862     0.007504
PD533   PD        0.692497    0.693242    0.157323     0.007504
PD534   PD        0.691342    0.730720    0.195136     0.007504
PD535   PD        0.731436    0.692694    0.197081     0.007504
PD536   PD        0.267986    0.772897    0.194055     0.007504
PD537   PD        0.304727    0.773302    0.156211     0.007504
PD538   PD        0.308565    0.809943    0.194982     0.007504
PD539   PD        0.346650    0.773816    0.191943     0.007504
PD540   PD        0.383916    0.774320    0.155163     0.007504
PD541   PD        0.384327    0.813522    0.192578     0.007504
PD542   PD        0.423427    0.772577    0.194107     0.007504
PD543   PD        0.425796    0.810959    0.159139     0.007504
PD544   PD        0.460044    0.773581    0.158038     0.007504
PD545   PD        0.465012    0.812017    0.195989     0.007504
PD546   PD        0.500422    0.772556    0.191023     0.007504
PD547   PD        0.501368    0.810685    0.157444     0.007504
PD548   PD        0.540151    0.774308    0.152125     0.007504
PD549   PD        0.542104    0.811077    0.193877     0.007504
PD550   PD        0.581157    0.772669    0.193867     0.007504
PD551   PD        0.619298    0.771458    0.157651     0.007504
PD552   PD        0.620489    0.807922    0.196972     0.007504
PD553   PD        0.656582    0.771140    0.195382     0.007504
PD554   PD        0.423771    0.849412    0.195915     0.007504
PD555   PD        0.503434    0.849037    0.195660     0.007504
PD556   PD        0.380208    0.044973    0.265245     0.007504
PD557   PD        0.458583    0.045034    0.269304     0.007504
PD558   PD        0.538409    0.041618    0.264828     0.007504
PD559   PD        0.226964    0.119912    0.270186     0.007504
PD560   PD        0.263936    0.080961    0.266970     0.007504
PD561   PD        0.265030    0.118226    0.229847     0.007504
AU562   AU        0.302796    0.118465    0.267881     0.007504
PD563   PD        0.340369    0.082398    0.267141     0.007504
PD564   PD        0.342312    0.115939    0.226956     0.007504
PD565   PD        0.382922    0.081518    0.227901     0.007504
AU566   AU        0.381591    0.117587    0.263524     0.007504
PD567   PD        0.419166    0.080002    0.265234     0.007504
PD568   PD        0.421073    0.116007    0.227969     0.007504
PD569   PD        0.456850    0.080997    0.230095     0.007504
PD570   PD        0.456898    0.113752    0.268645     0.007504
PD571   PD        0.495292    0.079270    0.264171     0.007504
PD572   PD        0.495853    0.120035    0.230217     0.007504
PD573   PD        0.530528    0.079220    0.227634     0.007504
PD574   PD        0.534436    0.116383    0.265196     0.007504
PD575   PD        0.573675    0.079346    0.264459     0.007504
PD576   PD        0.571775    0.113747    0.228590     0.007504
PD577   PD        0.613504    0.114689    0.268871     0.007504
PD578   PD        0.651531    0.078688    0.270146     0.007504
PD579   PD        0.653130    0.119767    0.230270     0.007504
PD580   PD        0.690405    0.117330    0.267245     0.007504
PD581   PD        0.154946    0.195849    0.269692     0.007504
PD582   PD        0.189898    0.158176    0.267197     0.007504
PD583   PD        0.192061    0.197334    0.231773     0.007504
PD584   PD        0.227404    0.159178    0.231033     0.007504
PD585   PD        0.225991    0.196514    0.268831     0.007504
PD586   PD        0.263773    0.156468    0.267922     0.007504
AU587   AU        0.265429    0.197016    0.229996     0.007504
AU588   AU        0.302291    0.157016    0.229390     0.007504
PD589   PD        0.304645    0.195068    0.266909     0.007504
AU590   AU        0.341199    0.154915    0.263005     0.007504
AU591   AU        0.342403    0.194016    0.225683     0.007504
PD592   PD        0.378806    0.153954    0.224527     0.007504
AU593   AU        0.382594    0.192132    0.264220     0.007504
AU594   AU        0.421228    0.153302    0.266698     0.007504
AU595   AU        0.420358    0.192380    0.225368     0.007504
AU596   AU        0.457469    0.156560    0.226715     0.007504
PD597   PD        0.459473    0.194451    0.262465     0.007504
AU598   AU        0.499701    0.153493    0.264266     0.007504
PD599   PD        0.499340    0.192668    0.226292     0.007504
PD600   PD        0.537795    0.155399    0.227672     0.007504
AU601   AU        0.538590    0.190507    0.264124     0.007504
AU602   AU        0.574120    0.152028    0.265587     0.007504
PD603   PD        0.576001    0.195236    0.228690     0.007504
PD604   PD        0.615182    0.155255    0.232253     0.007504
PD605   PD        0.616127    0.190901    0.269050     0.007504
PD606   PD        0.653494    0.155445    0.267903     0.007504
PD607   PD        0.651950    0.192136    0.228298     0.007504
PD608   PD        0.691989    0.153929    0.227734     0.007504
AU609   AU        0.693312    0.192392    0.266422     0.007504
PD610   PD        0.728403    0.153561    0.266141     0.007504
PD611   PD        0.731260    0.189778    0.228279     0.007504
PD612   PD        0.765951    0.192902    0.266865     0.007504
PD613   PD        0.079146    0.272389    0.268180     0.007504
AU614   AU        0.115856    0.230487    0.265997     0.007504
PD615   PD        0.112649    0.276024    0.229374     0.007504
PD616   PD        0.154322    0.235857    0.230993     0.007504
PD617   PD        0.151973    0.271548    0.266294     0.007504
PD618   PD        0.187498    0.234420    0.267372     0.007504
PD619   PD        0.189503    0.273833    0.228519     0.007504
AU620   AU        0.225818    0.234880    0.227925     0.007504
AU621   AU        0.227399    0.271627    0.265245     0.007504
PD622   PD        0.264574    0.233464    0.265327     0.007504
AU623   AU        0.266489    0.270203    0.225398     0.007504
AU624   AU        0.303770    0.232549    0.229454     0.007504
AU625   AU        0.303149    0.272200    0.266864     0.007504
AU626   AU        0.342912    0.231098    0.264625     0.007504
AU627   AU        0.344238    0.269986    0.228179     0.007504
AU628   AU        0.383121    0.231109    0.226918     0.007504
AU629   AU        0.381440    0.270238    0.266671     0.007504
AU630   AU        0.422971    0.229853    0.264757     0.007504
AU631   AU        0.417289    0.269464    0.227724     0.007504
AU632   AU        0.460436    0.229939    0.224407     0.007504
AU633   AU        0.460800    0.269257    0.264632     0.007504
AU634   AU        0.500220    0.228829    0.267161     0.007504
PD635   PD        0.499080    0.268132    0.228911     0.007504
PD636   PD        0.534921    0.230548    0.228788     0.007504
AU637   AU        0.536298    0.268227    0.265439     0.007504
AU638   AU        0.575507    0.231279    0.263975     0.007504
AU639   AU        0.573665    0.269712    0.225942     0.007504
AU640   AU        0.615243    0.229716    0.226613     0.007504
AU641   AU        0.613067    0.268008    0.263768     0.007504
AU642   AU        0.653008    0.227635    0.268292     0.007504
AU643   AU        0.655124    0.267695    0.229758     0.007504
PD644   PD        0.692515    0.229591    0.229132     0.007504
AU645   AU        0.695072    0.268922    0.267968     0.007504
PD646   PD        0.729226    0.231115    0.268512     0.007504
PD647   PD        0.730513    0.268775    0.228397     0.007504
PD648   PD        0.766031    0.230254    0.227098     0.007504
PD649   PD        0.767398    0.267404    0.267621     0.007504
PD650   PD        0.803094    0.231963    0.268012     0.007504
PD651   PD        0.799457    0.269867    0.230452     0.007504
PD652   PD        0.843377    0.267073    0.268901     0.007504
PD653   PD        0.078163    0.351295    0.267585     0.007504
PD654   PD        0.114775    0.312403    0.269017     0.007504
PD655   PD        0.115447    0.350947    0.230642     0.007504
PD656   PD        0.150662    0.313266    0.230100     0.007504
PD657   PD        0.152218    0.347403    0.267655     0.007504
AU658   AU        0.190708    0.310415    0.265684     0.007504
PD659   PD        0.186680    0.347324    0.226169     0.007504
AU660   AU        0.228912    0.306958    0.226338     0.007504
AU661   AU        0.226849    0.349642    0.262248     0.007504
AU662   AU        0.265479    0.312027    0.269117     0.007504
AU663   AU        0.267691    0.345959    0.227891     0.007504
AU664   AU        0.306355    0.308727    0.228300     0.007504
AU665   AU        0.303663    0.348014    0.268550     0.007504
AU666   AU        0.343242    0.306932    0.265437     0.007504
AU667   AU        0.345570    0.349435    0.225810     0.007504
AU668   AU        0.382363    0.307165    0.226863     0.007504
AU669   AU        0.383761    0.350689    0.265756     0.007504
AU670   AU        0.420257    0.309439    0.265946     0.007504
AU671   AU        0.419640    0.347058    0.227807     0.007504
AU672   AU        0.459951    0.305264    0.227551     0.007504
AU673   AU        0.460670    0.344907    0.268304     0.007504
AU674   AU        0.499249    0.307166    0.265512     0.007504
AU675   AU        0.496824    0.346946    0.227995     0.007504
AU676   AU        0.536574    0.308976    0.228630     0.007504
AU677   AU        0.537597    0.348160    0.267221     0.007504
AU678   AU        0.575724    0.307451    0.265703     0.007504
AU679   AU        0.574717    0.346613    0.230470     0.007504
AU680   AU        0.612054    0.306935    0.227287     0.007504
AU681   AU        0.613574    0.346697    0.265501     0.007504
AU682   AU        0.652647    0.307147    0.265017     0.007504
AU683   AU        0.653027    0.348146    0.228577     0.007504
AU684   AU        0.689992    0.307049    0.228002     0.007504
AU685   AU        0.692461    0.343999    0.267404     0.007504
AU686   AU        0.732246    0.306217    0.267282     0.007504
PD687   PD        0.731184    0.347923    0.229935     0.007504
PD688   PD        0.766903    0.307992    0.227648     0.007504
PD689   PD        0.769128    0.344758    0.267363     0.007504
PD690   PD        0.804225    0.304864    0.268983     0.007504
AU691   AU        0.808886    0.345825    0.229081     0.007504
AU692   AU        0.843814    0.344991    0.267576     0.007504
PD693   PD        0.041737    0.387486    0.270504     0.007504
AU694   AU        0.076538    0.387461    0.226320     0.007504
PD695   PD        0.077790    0.424732    0.269128     0.007504
PD696   PD        0.115061    0.388757    0.267428     0.007504
PD697   PD        0.113297    0.426071    0.230871     0.007504
PD698   PD        0.154077    0.386428    0.227733     0.007504
AU699   AU        0.152475    0.425103    0.266019     0.007504
AU700   AU        0.189275    0.384533    0.262813     0.007504
AU701   AU        0.190751    0.427759    0.228963     0.007504
PD702   PD        0.227073    0.387206    0.226315     0.007504
AU703   AU        0.227190    0.425436    0.265518     0.007504
AU704   AU        0.267715    0.385572    0.265567     0.007504
AU705   AU        0.265195    0.425573    0.227415     0.007504
AU706   AU        0.305118    0.385621    0.227379     0.007504
AU707   AU        0.305970    0.424685    0.265517     0.007504
AU708   AU        0.345517    0.385633    0.264630     0.007504
AU709   AU        0.344499    0.423200    0.228018     0.007504
AU710   AU        0.386490    0.389551    0.226870     0.007504
AU711   AU        0.388108    0.427111    0.265857     0.007504
AU712   AU        0.422145    0.388868    0.266928     0.007504
AU713   AU        0.425136    0.426954    0.228272     0.007504
AU714   AU        0.459132    0.385951    0.227371     0.007504
AU715   AU        0.460692    0.423812    0.267093     0.007504
AU716   AU        0.497405    0.384925    0.267022     0.007504
AU717   AU        0.498661    0.424707    0.227342     0.007504
AU718   AU        0.538197    0.384261    0.226091     0.007504
AU719   AU        0.536621    0.424602    0.265040     0.007504
AU720   AU        0.576130    0.386187    0.266460     0.007504
AU721   AU        0.574901    0.424015    0.228806     0.007504
AU722   AU        0.612762    0.387026    0.229719     0.007504
AU723   AU        0.614771    0.427265    0.266996     0.007504
AU724   AU        0.650401    0.385070    0.267588     0.007504
AU725   AU        0.652038    0.423567    0.229251     0.007504
AU726   AU        0.690260    0.383801    0.228986     0.007504
AU727   AU        0.693375    0.422515    0.265915     0.007504
AU728   AU        0.730798    0.383931    0.268194     0.007504
PD729   PD        0.731295    0.421133    0.228565     0.007504
AU730   AU        0.768113    0.383986    0.227908     0.007504
PD731   PD        0.768664    0.421952    0.265366     0.007504
PD732   PD        0.807595    0.382293    0.266293     0.007504
PD733   PD        0.807789    0.420925    0.229069     0.007504
PD734   PD        0.844147    0.384715    0.229049     0.007504
PD735   PD        0.844261    0.421702    0.266509     0.007504
PD736   PD        0.881090    0.381169    0.267371     0.007504
PD737   PD        0.041949    0.464074    0.266945     0.007504
PD738   PD        0.078352    0.463440    0.230127     0.007504
PD739   PD        0.078807    0.506263    0.269120     0.007504
AU740   AU        0.114097    0.466227    0.270437     0.007504
PD741   PD        0.116048    0.504675    0.229885     0.007504
AU742   AU        0.153815    0.466109    0.229812     0.007504
AU743   AU        0.150067    0.507222    0.270352     0.007504
AU744   AU        0.188082    0.466861    0.269601     0.007504
PD745   PD        0.190600    0.505953    0.231379     0.007504
AU746   AU        0.230101    0.466966    0.229576     0.007504
AU747   AU        0.229397    0.506627    0.268336     0.007504
AU748   AU        0.266912    0.464742    0.265384     0.007504
AU749   AU        0.269944    0.505871    0.230254     0.007504
AU750   AU        0.306721    0.465844    0.228912     0.007504
AU751   AU        0.307517    0.503755    0.267912     0.007504
AU752   AU        0.346435    0.463715    0.266104     0.007504
AU753   AU        0.346062    0.506621    0.229630     0.007504
AU754   AU        0.384055    0.463212    0.224585     0.007504
AU755   AU        0.385156    0.504237    0.266809     0.007504
AU756   AU        0.424660    0.467610    0.262106     0.007504
AU757   AU        0.424415    0.506585    0.224843     0.007504
AU758   AU        0.462160    0.463036    0.227579     0.007504
AU759   AU        0.459672    0.503883    0.265799     0.007504
AU760   AU        0.497302    0.464782    0.265879     0.007504
AU761   AU        0.502571    0.502193    0.229810     0.007504
AU762   AU        0.536396    0.463133    0.228090     0.007504
AU763   AU        0.540276    0.500048    0.268462     0.007504
AU764   AU        0.575388    0.462312    0.266522     0.007504
AU765   AU        0.577319    0.501075    0.229076     0.007504
PD766   PD        0.614127    0.463209    0.227840     0.007504
AU767   AU        0.615076    0.499626    0.268128     0.007504
AU768   AU        0.653801    0.458989    0.267237     0.007504
AU769   AU        0.651044    0.501290    0.227843     0.007504
AU770   AU        0.695121    0.459985    0.226112     0.007504
PD771   PD        0.691941    0.501707    0.263678     0.007504
AU772   AU        0.730564    0.459901    0.267451     0.007504
AU773   AU        0.731586    0.500861    0.227963     0.007504
PD774   PD        0.768864    0.456329    0.227937     0.007504
AU775   AU        0.769832    0.499961    0.267322     0.007504
PD776   PD        0.807481    0.460764    0.262846     0.007504
AU777   AU        0.807696    0.499755    0.228736     0.007504
PD778   PD        0.844884    0.461289    0.226446     0.007504
PD779   PD        0.844338    0.498468    0.267733     0.007504
AU780   AU        0.883559    0.460248    0.265700     0.007504
PD781   PD        0.041302    0.543096    0.270245     0.007504
PD782   PD        0.079069    0.540610    0.232628     0.007504
PD783   PD        0.080861    0.579750    0.268276     0.007504
PD784   PD        0.116581    0.542804    0.268907     0.007504
PD785   PD        0.116068    0.584299    0.232292     0.007504
PD786   PD        0.155151    0.542985    0.230534     0.007504
PD787   PD        0.154780    0.578864    0.268434     0.007504
PD788   PD        0.193676    0.542609    0.270118     0.007504
PD789   PD        0.193131    0.582577    0.230083     0.007504
AU790   AU        0.229630    0.546822    0.229611     0.007504
PD791   PD        0.230987    0.581521    0.269695     0.007504
AU792   AU        0.268682    0.542836    0.266975     0.007504
AU793   AU        0.270241    0.582798    0.227797     0.007504
AU794   AU        0.305721    0.540485    0.230075     0.007504
AU795   AU        0.304436    0.581808    0.265921     0.007504
AU796   AU        0.343224    0.542210    0.268329     0.007504
AU797   AU        0.346508    0.578793    0.230129     0.007504
AU798   AU        0.383851    0.541296    0.229266     0.007504
AU799   AU        0.382953    0.582097    0.268343     0.007504
AU800   AU        0.421629    0.543264    0.266308     0.007504
AU801   AU        0.422975    0.578508    0.226541     0.007504
AU802   AU        0.462009    0.542838    0.224435     0.007504
AU803   AU        0.461977    0.578154    0.267269     0.007504
AU804   AU        0.502234    0.538697    0.266159     0.007504
AU805   AU        0.502243    0.577299    0.229895     0.007504
AU806   AU        0.538245    0.540486    0.229628     0.007504
AU807   AU        0.537654    0.578982    0.268691     0.007504
AU808   AU        0.578256    0.542768    0.267228     0.007504
AU809   AU        0.576110    0.580166    0.228619     0.007504
AU810   AU        0.613990    0.540203    0.227353     0.007504
AU811   AU        0.617914    0.576411    0.268207     0.007504
AU812   AU        0.652962    0.539094    0.263920     0.007504
AU813   AU        0.655020    0.577306    0.226245     0.007504
AU814   AU        0.695253    0.539188    0.227066     0.007504
AU815   AU        0.691312    0.577444    0.265969     0.007504
AU816   AU        0.731735    0.539553    0.263420     0.007504
PD817   PD        0.729287    0.578540    0.230441     0.007504
PD818   PD        0.770250    0.538634    0.228827     0.007504
PD819   PD        0.766591    0.576922    0.268699     0.007504
AU820   AU        0.808876    0.537988    0.268339     0.007504
PD821   PD        0.807890    0.576555    0.230932     0.007504
PD822   PD        0.843947    0.538305    0.227806     0.007504
PD823   PD        0.846168    0.575783    0.269411     0.007504
PD824   PD        0.881364    0.536577    0.266764     0.007504
PD825   PD        0.078019    0.654212    0.268777     0.007504
PD826   PD        0.118443    0.620490    0.267558     0.007504
PD827   PD        0.116833    0.659604    0.230938     0.007504
PD828   PD        0.156040    0.618436    0.230491     0.007504
PD829   PD        0.152966    0.658964    0.266909     0.007504
PD830   PD        0.192384    0.618065    0.270389     0.007504
PD831   PD        0.190590    0.656530    0.228715     0.007504
PD832   PD        0.231947    0.618453    0.229867     0.007504
AU833   AU        0.228483    0.656202    0.266695     0.007504
AU834   AU        0.268748    0.620242    0.268599     0.007504
AU835   AU        0.270378    0.658074    0.229474     0.007504
AU836   AU        0.309378    0.618433    0.231215     0.007504
AU837   AU        0.307560    0.656299    0.268279     0.007504
AU838   AU        0.347727    0.619397    0.266908     0.007504
AU839   AU        0.347221    0.660696    0.227670     0.007504
AU840   AU        0.384531    0.618397    0.227248     0.007504
AU841   AU        0.384440    0.657029    0.267105     0.007504
AU842   AU        0.425016    0.617960    0.266216     0.007504
AU843   AU        0.423921    0.654475    0.223431     0.007504
AU844   AU        0.462898    0.618031    0.227468     0.007504
AU845   AU        0.461024    0.657783    0.267769     0.007504
AU846   AU        0.501716    0.619589    0.266514     0.007504
AU847   AU        0.500101    0.659922    0.229624     0.007504
AU848   AU        0.536832    0.617914    0.230009     0.007504
AU849   AU        0.536967    0.659169    0.268301     0.007504
AU850   AU        0.575590    0.618194    0.267514     0.007504
AU851   AU        0.576411    0.659204    0.229498     0.007504
PD852   PD        0.614752    0.616676    0.230364     0.007504
AU853   AU        0.614926    0.657305    0.266615     0.007504
AU854   AU        0.653704    0.615305    0.267028     0.007504
AU855   AU        0.654427    0.657329    0.228984     0.007504
AU856   AU        0.691140    0.616117    0.228469     0.007504
AU857   AU        0.692003    0.653698    0.266076     0.007504
PD858   PD        0.732235    0.618377    0.269462     0.007504
PD859   PD        0.731683    0.652263    0.231033     0.007504
PD860   PD        0.769683    0.616821    0.232178     0.007504
PD861   PD        0.768292    0.652393    0.271308     0.007504
PD862   PD        0.806526    0.613829    0.270330     0.007504
PD863   PD        0.803266    0.653348    0.232920     0.007504
PD864   PD        0.844202    0.648256    0.266884     0.007504
PD865   PD        0.116579    0.697066    0.268164     0.007504
PD866   PD        0.155711    0.698671    0.229425     0.007504
PD867   PD        0.154471    0.734081    0.268741     0.007504
AU868   AU        0.192124    0.696889    0.267695     0.007504
PD869   PD        0.192271    0.733961    0.230933     0.007504
AU870   AU        0.227858    0.696448    0.230169     0.007504
PD871   PD        0.232049    0.736313    0.268448     0.007504
AU872   AU        0.267766    0.692855    0.270614     0.007504
AU873   AU        0.270377    0.734192    0.233096     0.007504
AU874   AU        0.308678    0.698922    0.230303     0.007504
AU875   AU        0.306064    0.733522    0.270602     0.007504
AU876   AU        0.344553    0.697136    0.267392     0.007504
AU877   AU        0.347866    0.733758    0.227740     0.007504
AU878   AU        0.386566    0.694691    0.226680     0.007504
AU879   AU        0.382300    0.733913    0.268426     0.007504
AU880   AU        0.422486    0.696084    0.269907     0.007504
AU881   AU        0.423056    0.736745    0.229990     0.007504
AU882   AU        0.459551    0.698984    0.231793     0.007504
AU883   AU        0.463447    0.737206    0.270302     0.007504
AU884   AU        0.500538    0.696381    0.267279     0.007504
PD885   PD        0.499978    0.732667    0.229368     0.007504
AU886   AU        0.538921    0.698188    0.226904     0.007504
PD887   PD        0.538457    0.736635    0.266496     0.007504
AU888   AU        0.574797    0.699511    0.268423     0.007504
PD889   PD        0.578765    0.735946    0.229250     0.007504
AU890   AU        0.614768    0.695869    0.232152     0.007504
PD891   PD        0.616586    0.734102    0.268927     0.007504
AU892   AU        0.655753    0.694355    0.269416     0.007504
PD893   PD        0.653441    0.733042    0.232581     0.007504
PD894   PD        0.691271    0.693750    0.230529     0.007504
PD895   PD        0.696205    0.730505    0.269178     0.007504
PD896   PD        0.732185    0.689258    0.270076     0.007504
PD897   PD        0.729888    0.728078    0.232078     0.007504
PD898   PD        0.771003    0.691665    0.234309     0.007504
PD899   PD        0.772074    0.726398    0.271806     0.007504
PD900   PD        0.807183    0.688523    0.271337     0.007504
PD901   PD        0.191321    0.771111    0.269552     0.007504
PD902   PD        0.231287    0.774306    0.232538     0.007504
AU903   AU        0.228556    0.810762    0.271596     0.007504
PD904   PD        0.268198    0.773080    0.272705     0.007504
PD905   PD        0.270875    0.807543    0.231500     0.007504
AU906   AU        0.309972    0.768064    0.229011     0.007504
PD907   PD        0.306856    0.810130    0.271226     0.007504
AU908   AU        0.346298    0.771311    0.269275     0.007504
PD909   PD        0.344190    0.812381    0.233233     0.007504
PD910   PD        0.383999    0.777136    0.229936     0.007504
PD911   PD        0.385608    0.809358    0.270225     0.007504
AU912   AU        0.424838    0.772519    0.268435     0.007504
AU913   AU        0.426009    0.811510    0.231660     0.007504
PD914   PD        0.463276    0.773071    0.228000     0.007504
PD915   PD        0.461434    0.812172    0.269971     0.007504
AU916   AU        0.501197    0.771542    0.267264     0.007504
PD917   PD        0.502713    0.812722    0.232472     0.007504
PD918   PD        0.536495    0.773813    0.230006     0.007504
PD919   PD        0.540494    0.809260    0.271180     0.007504
PD920   PD        0.579037    0.772705    0.270125     0.007504
PD921   PD        0.577572    0.808580    0.233703     0.007504
PD922   PD        0.617924    0.770418    0.234169     0.007504
PD923   PD        0.617022    0.808512    0.269908     0.007504
PD924   PD        0.654014    0.769261    0.271445     0.007504
PD925   PD        0.657538    0.807134    0.233837     0.007504
PD926   PD        0.695182    0.768957    0.231891     0.007504
PD927   PD        0.691802    0.804478    0.271561     0.007504
PD928   PD        0.731386    0.769549    0.267639     0.007504
AU929   AU        0.271850    0.848413    0.270798     0.007504
PD930   PD        0.347334    0.847361    0.270700     0.007504
PD931   PD        0.388107    0.846794    0.234666     0.007504
PD932   PD        0.385523    0.885779    0.271758     0.007504
PD933   PD        0.424518    0.848964    0.271476     0.007504
PD934   PD        0.462964    0.850638    0.232014     0.007504
PD935   PD        0.463591    0.884745    0.273470     0.007504
PD936   PD        0.501614    0.846156    0.269486     0.007504
PD937   PD        0.541594    0.847394    0.233666     0.007504
PD938   PD        0.539897    0.882025    0.274130     0.007504
PD939   PD        0.577224    0.844295    0.271972     0.007504
PD940   PD        0.657138    0.842257    0.273717     0.007504
PD941   PD        0.304557    0.042081    0.342462     0.007504
PD942   PD        0.343698    0.041688    0.302337     0.007504
PD943   PD        0.379111    0.043033    0.340382     0.007504
PD944   PD        0.417113    0.043932    0.303382     0.007504
AU945   AU        0.457588    0.039902    0.340313     0.007504
PD946   PD        0.497300    0.040835    0.303673     0.007504
AU947   AU        0.536913    0.041738    0.342654     0.007504
PD948   PD        0.574546    0.042213    0.305057     0.007504
PD949   PD        0.613512    0.040293    0.343553     0.007504
PD950   PD        0.187891    0.118435    0.305212     0.007504
PD951   PD        0.226420    0.116644    0.341935     0.007504
PD952   PD        0.266352    0.081316    0.344787     0.007504
PD953   PD        0.266754    0.119792    0.306881     0.007504
PD954   PD        0.304591    0.079302    0.305176     0.007504
PD955   PD        0.303671    0.119575    0.342258     0.007504
PD956   PD        0.341696    0.081244    0.344654     0.007504
PD957   PD        0.343137    0.118777    0.304643     0.007504
PD958   PD        0.381007    0.082810    0.306023     0.007504
PD959   PD        0.382236    0.118370    0.343054     0.007504
PD960   PD        0.418313    0.079149    0.342141     0.007504
PD961   PD        0.420349    0.117394    0.305988     0.007504
PD962   PD        0.456439    0.078633    0.306029     0.007504
PD963   PD        0.459505    0.117413    0.342112     0.007504
PD964   PD        0.497382    0.075384    0.342654     0.007504
PD965   PD        0.498173    0.113658    0.303251     0.007504
PD966   PD        0.535497    0.078589    0.304000     0.007504
AU967   AU        0.537283    0.117586    0.342541     0.007504
PD968   PD        0.575177    0.077895    0.344635     0.007504
PD969   PD        0.573907    0.112152    0.305447     0.007504
PD970   PD        0.612956    0.079599    0.305369     0.007504
PD971   PD        0.611646    0.115503    0.344898     0.007504
PD972   PD        0.649633    0.079487    0.344917     0.007504
PD973   PD        0.653192    0.117206    0.304512     0.007504
PD974   PD        0.690418    0.116797    0.342986     0.007504
PD975   PD        0.729588    0.117259    0.305968     0.007504
PD976   PD        0.117181    0.197055    0.306992     0.007504
PD977   PD        0.153404    0.159455    0.306851     0.007504
PD978   PD        0.152064    0.197324    0.343395     0.007504
PD979   PD        0.191944    0.155088    0.343501     0.007504
PD980   PD        0.191147    0.194024    0.306143     0.007504
PD981   PD        0.225701    0.156097    0.305575     0.007504
AU982   AU        0.227927    0.194703    0.342397     0.007504
AU983   AU        0.263650    0.155326    0.344682     0.007504
AU984   AU        0.266414    0.192458    0.303819     0.007504
PD985   PD        0.303097    0.156002    0.305195     0.007504
AU986   AU        0.304939    0.192465    0.343597     0.007504
PD987   PD        0.344360    0.153663    0.344190     0.007504
AU988   AU        0.344082    0.192392    0.303956     0.007504
PD989   PD        0.383261    0.154276    0.304004     0.007504
AU990   AU        0.382134    0.194030    0.342872     0.007504
AU991   AU        0.420814    0.154113    0.342491     0.007504
AU992   AU        0.421665    0.192135    0.303157     0.007504
AU993   AU        0.460653    0.153704    0.302433     0.007504
PD994   PD        0.458776    0.191981    0.341149     0.007504
PD995   PD        0.497630    0.154107    0.340748     0.007504
AU996   AU        0.500689    0.190202    0.305171     0.007504
PD997   PD        0.537619    0.153415    0.305302     0.007504
AU998   AU        0.537945    0.191251    0.342359     0.007504
PD999   PD        0.574839    0.152879    0.344217     0.007504
AU1000   AU        0.577095    0.190975    0.305737     0.007504
PD1001   PD        0.612021    0.151227    0.305356     0.007504
AU1002   AU        0.613681    0.190773    0.345467     0.007504
AU1003   AU        0.649527    0.152972    0.344099     0.007504
AU1004   AU        0.653315    0.189146    0.305714     0.007504
PD1005   PD        0.689379    0.152421    0.305421     0.007504
AU1006   AU        0.691650    0.192783    0.343209     0.007504
PD1007   PD        0.728175    0.153420    0.345788     0.007504
AU1008   AU        0.730102    0.191414    0.304783     0.007504
AU1009   AU        0.767657    0.152802    0.303156     0.007504
PD1010   PD        0.767542    0.193226    0.342556     0.007504
PD1011   PD        0.806381    0.192427    0.304608     0.007504
PD1012   PD        0.077652    0.274490    0.342441     0.007504
PD1013   PD        0.113654    0.234335    0.344518     0.007504
PD1014   PD        0.113121    0.271823    0.304094     0.007504
PD1015   PD        0.153246    0.235687    0.306559     0.007504
PD1016   PD        0.149033    0.271688    0.342270     0.007504
PD1017   PD        0.189308    0.232366    0.341943     0.007504
AU1018   AU        0.190795    0.269994    0.306819     0.007504
AU1019   AU        0.231430    0.235132    0.304578     0.007504
AU1020   AU        0.227298    0.269607    0.347380     0.007504
AU1021   AU        0.265893    0.230665    0.344529     0.007504
AU1022   AU        0.266261    0.272735    0.306643     0.007504
AU1023   AU        0.301405    0.232658    0.305702     0.007504
AU1024   AU        0.304369    0.271817    0.343131     0.007504
AU1025   AU        0.344437    0.232660    0.342813     0.007504
AU1026   AU        0.342147    0.272683    0.305168     0.007504
AU1027   AU        0.381996    0.230111    0.302366     0.007504
AU1028   AU        0.381174    0.267963    0.340934     0.007504
AU1029   AU        0.420576    0.231320    0.341447     0.007504
AU1030   AU        0.421032    0.266642    0.303051     0.007504
AU1031   AU        0.459947    0.230608    0.305153     0.007504
AU1032   AU        0.460125    0.269298    0.343292     0.007504
AU1033   AU        0.499463    0.229812    0.342628     0.007504
AU1034   AU        0.500075    0.266670    0.305700     0.007504
AU1035   AU        0.539634    0.229964    0.305254     0.007504
AU1036   AU        0.536328    0.269435    0.346992     0.007504
AU1037   AU        0.576242    0.229785    0.344361     0.007504
AU1038   AU        0.575718    0.269706    0.305211     0.007504
AU1039   AU        0.612837    0.231286    0.302433     0.007504
AU1040   AU        0.612123    0.269894    0.343779     0.007504
AU1041   AU        0.653650    0.228381    0.340552     0.007504
AU1042   AU        0.655135    0.265368    0.305688     0.007504
PD1043   PD        0.691474    0.226276    0.305153     0.007504
PD1044   PD        0.693238    0.267030    0.344486     0.007504
AU1045   AU        0.728524    0.229572    0.341877     0.007504
PD1046   PD        0.733873    0.268485    0.307949     0.007504
PD1047   PD        0.769221    0.230109    0.308025     0.007504
PD1048   PD        0.770555    0.266082    0.344769     0.007504
PD1049   PD        0.808093    0.230086    0.342629     0.007504
PD1050   PD        0.806300    0.265249    0.306904     0.007504
PD1051   PD        0.842467    0.269196    0.348606     0.007504
PD1052   PD        0.039328    0.312174    0.343333     0.007504
PD1053   PD        0.040366    0.348334    0.305925     0.007504
PD1054   PD        0.077104    0.311693    0.304288     0.007504
PD1055   PD        0.076506    0.348566    0.344795     0.007504
PD1056   PD        0.111963    0.309755    0.346380     0.007504
PD1057   PD        0.114749    0.349390    0.304570     0.007504
PD1058   PD        0.151513    0.308260    0.303626     0.007504
AU1059   AU        0.153839    0.346950    0.341115     0.007504
AU1060   AU        0.189623    0.308867    0.343514     0.007504
AU1061   AU        0.190511    0.346839    0.303567     0.007504
PD1062   PD        0.228287    0.309845    0.306131     0.007504
AU1063   AU        0.227327    0.349400    0.342643     0.007504
AU1064   AU        0.266893    0.308341    0.344736     0.007504
AU1065   AU        0.266958    0.346863    0.307010     0.007504
AU1066   AU        0.302662    0.307446    0.304739     0.007504
AU1067   AU        0.306242    0.346777    0.343928     0.007504
AU1068   AU        0.341519    0.306386    0.343725     0.007504
AU1069   AU        0.342710    0.347139    0.303215     0.007504
AU1070   AU        0.379947    0.308478    0.304507     0.007504
AU1071   AU        0.379185    0.346450    0.341594     0.007504
AU1072   AU        0.420803    0.307197    0.342406     0.007504
AU1073   AU        0.419722    0.344742    0.303451     0.007504
AU1074   AU        0.460562    0.305363    0.304306     0.007504
AU1075   AU        0.458055    0.346254    0.340786     0.007504
AU1076   AU        0.498926    0.308631    0.341987     0.007504
AU1077   AU        0.496791    0.346512    0.306695     0.007504
AU1078   AU        0.536284    0.303717    0.306040     0.007504
AU1079   AU        0.536495    0.348001    0.341385     0.007504
AU1080   AU        0.576458    0.306462    0.344083     0.007504
AU1081   AU        0.575482    0.344850    0.305434     0.007504
AU1082   AU        0.617765    0.305486    0.303418     0.007504
AU1083   AU        0.614362    0.348524    0.343366     0.007504
AU1084   AU        0.655793    0.304716    0.343050     0.007504
AU1085   AU        0.654345    0.345194    0.305906     0.007504
AU1086   AU        0.692932    0.304103    0.305033     0.007504
AU1087   AU        0.692876    0.345601    0.344704     0.007504
AU1088   AU        0.728619    0.304190    0.343320     0.007504
AU1089   AU        0.732410    0.342760    0.306050     0.007504
PD1090   PD        0.769464    0.305566    0.306156     0.007504
PD1091   PD        0.767545    0.344233    0.344647     0.007504
PD1092   PD        0.805146    0.306710    0.344876     0.007504
PD1093   PD        0.806689    0.345623    0.305963     0.007504
PD1094   PD        0.841483    0.305718    0.304961     0.007504
AU1095   AU        0.846372    0.343278    0.342962     0.007504
PD1096   PD        0.880256    0.302010    0.341824     0.007504
PD1097   PD        0.883672    0.341298    0.301690     0.007504
PD1098   PD        0.038685    0.386864    0.343412     0.007504
PD1099   PD        0.040810    0.426798    0.306400     0.007504
PD1100   PD        0.079194    0.387629    0.308076     0.007504
AU1101   AU        0.075129    0.425306    0.346727     0.007504
AU1102   AU        0.115472    0.388796    0.345246     0.007504
PD1103   PD        0.113564    0.426925    0.308243     0.007504
AU1104   AU        0.152388    0.388531    0.304165     0.007504
AU1105   AU        0.153191    0.427131    0.346389     0.007504
AU1106   AU        0.190540    0.388665    0.341268     0.007504
AU1107   AU        0.189868    0.428460    0.305951     0.007504
AU1108   AU        0.227425    0.383685    0.302804     0.007504
AU1109   AU        0.229721    0.425868    0.343529     0.007504
AU1110   AU        0.267301    0.385067    0.344696     0.007504
AU1111   AU        0.265148    0.424775    0.303615     0.007504
AU1112   AU        0.305519    0.388378    0.303510     0.007504
AU1113   AU        0.303703    0.425662    0.343312     0.007504
AU1114   AU        0.343147    0.385550    0.344390     0.007504
AU1115   AU        0.345583    0.426133    0.303144     0.007504
AU1116   AU        0.382550    0.384836    0.305815     0.007504
AU1117   AU        0.380080    0.423249    0.345569     0.007504
AU1118   AU        0.417271    0.384687    0.345176     0.007504
AU1119   AU        0.423096    0.425800    0.307974     0.007504
AU1120   AU        0.462019    0.386043    0.307753     0.007504
AU1121   AU        0.462034    0.424801    0.343597     0.007504
AU1122   AU        0.499361    0.386211    0.345207     0.007504
AU1123   AU        0.500081    0.422740    0.305088     0.007504
AU1124   AU        0.538084    0.387737    0.306203     0.007504
AU1125   AU        0.537032    0.423667    0.343822     0.007504
AU1126   AU        0.574490    0.387502    0.342635     0.007504
AU1127   AU        0.578244    0.425621    0.305323     0.007504
AU1128   AU        0.614872    0.386334    0.305831     0.007504
AU1129   AU        0.616624    0.421634    0.344857     0.007504
AU1130   AU        0.654141    0.386135    0.346355     0.007504
AU1131   AU        0.654484    0.422729    0.304752     0.007504
AU1132   AU        0.693104    0.382989    0.308546     0.007504
AU1133   AU        0.691990    0.425741    0.347501     0.007504
AU1134   AU        0.731570    0.382921    0.343169     0.007504
AU1135   AU        0.733156    0.422897    0.307144     0.007504
AU1136   AU        0.769167    0.383076    0.306193     0.007504
AU1137   AU        0.770233    0.421601    0.343135     0.007504
AU1138   AU        0.808763    0.383604    0.342701     0.007504
AU1139   AU        0.806979    0.419140    0.303109     0.007504
PD1140   PD        0.843480    0.382450    0.303006     0.007504
PD1141   PD        0.843812    0.419208    0.343104     0.007504
PD1142   PD        0.883058    0.382448    0.338677     0.007504
PD1143   PD        0.879994    0.421067    0.303580     0.007504
PD1144   PD        0.039502    0.465962    0.345359     0.007504
PD1145   PD        0.040769    0.504925    0.308265     0.007504
AU1146   AU        0.076412    0.465823    0.307073     0.007504
PD1147   PD        0.075395    0.504998    0.347052     0.007504
PD1148   PD        0.111324    0.464030    0.347470     0.007504
AU1149   AU        0.114847    0.502097    0.308587     0.007504
PD1150   PD        0.149976    0.463006    0.308742     0.007504
AU1151   AU        0.150509    0.506265    0.345290     0.007504
AU1152   AU        0.190336    0.465951    0.347243     0.007504
AU1153   AU        0.187844    0.501277    0.306146     0.007504
AU1154   AU        0.229906    0.464595    0.306274     0.007504
AU1155   AU        0.230703    0.503886    0.344226     0.007504
AU1156   AU        0.267075    0.464222    0.345284     0.007504
AU1157   AU        0.266606    0.503922    0.304758     0.007504
AU1158   AU        0.305405    0.464326    0.304651     0.007504
AU1159   AU        0.304043    0.502238    0.346311     0.007504
AU1160   AU        0.344090    0.466648    0.346114     0.007504
AU1161   AU        0.345616    0.502376    0.305039     0.007504
AU1162   AU        0.384318    0.465759    0.306404     0.007504
AU1163   AU        0.382362    0.504603    0.344804     0.007504
AU1164   AU        0.421208    0.462458    0.346210     0.007504
AU1165   AU        0.421818    0.504199    0.308007     0.007504
AU1166   AU        0.461683    0.464657    0.304400     0.007504
AU1167   AU        0.460145    0.501785    0.343593     0.007504
AU1168   AU        0.498845    0.464940    0.344107     0.007504
AU1169   AU        0.498820    0.504476    0.306388     0.007504
AU1170   AU        0.538514    0.463102    0.308211     0.007504
AU1171   AU        0.536848    0.500055    0.346981     0.007504
AU1172   AU        0.579296    0.463144    0.345284     0.007504
AU1173   AU        0.577045    0.502354    0.306130     0.007504
AU1174   AU        0.615847    0.463099    0.307087     0.007504
AU1175   AU        0.615986    0.498971    0.344177     0.007504
AU1176   AU        0.655560    0.460081    0.345249     0.007504
AU1177   AU        0.654030    0.502415    0.305293     0.007504
AU1178   AU        0.691233    0.461836    0.306370     0.007504
AU1179   AU        0.694638    0.501858    0.342932     0.007504
AU1180   AU        0.731483    0.461948    0.346704     0.007504
AU1181   AU        0.729986    0.499023    0.302822     0.007504
AU1182   AU        0.771720    0.460276    0.306734     0.007504
AU1183   AU        0.769851    0.499779    0.343458     0.007504
PD1184   PD        0.806879    0.460643    0.346134     0.007504
PD1185   PD        0.807036    0.498317    0.308834     0.007504
PD1186   PD        0.843044    0.460869    0.304479     0.007504
PD1187   PD        0.845766    0.499607    0.344820     0.007504
PD1188   PD        0.880810    0.459699    0.342420     0.007504
PD1189   PD        0.880165    0.498445    0.304914     0.007504
AU1190   AU        0.037022    0.541472    0.347740     0.007504
PD1191   PD        0.040079    0.580289    0.309619     0.007504
PD1192   PD        0.076990    0.544181    0.307898     0.007504
PD1193   PD        0.077048    0.579425    0.346484     0.007504
AU1194   AU        0.113625    0.543584    0.346782     0.007504
PD1195   PD        0.114956    0.578825    0.308021     0.007504
PD1196   PD        0.152173    0.542551    0.309230     0.007504
AU1197   AU        0.152552    0.581452    0.346253     0.007504
AU1198   AU        0.188441    0.541297    0.346074     0.007504
AU1199   AU        0.190540    0.580441    0.307495     0.007504
AU1200   AU        0.227440    0.542443    0.308862     0.007504
AU1201   AU        0.228484    0.581508    0.345494     0.007504
AU1202   AU        0.266681    0.542326    0.345554     0.007504
AU1203   AU        0.268903    0.581221    0.305158     0.007504
AU1204   AU        0.305122    0.542286    0.305529     0.007504
AU1205   AU        0.304075    0.582018    0.344851     0.007504
AU1206   AU        0.343358    0.543300    0.344055     0.007504
AU1207   AU        0.343812    0.581139    0.306603     0.007504
AU1208   AU        0.382686    0.542461    0.305656     0.007504
AU1209   AU        0.384458    0.579532    0.344792     0.007504
AU1210   AU        0.423803    0.541332    0.343025     0.007504
AU1211   AU        0.422125    0.580333    0.305540     0.007504
AU1212   AU        0.461803    0.540239    0.305332     0.007504
AU1213   AU        0.461482    0.579707    0.343671     0.007504
AU1214   AU        0.498971    0.540256    0.345851     0.007504
AU1215   AU        0.498461    0.578325    0.306090     0.007504
AU1216   AU        0.539381    0.538428    0.306317     0.007504
AU1217   AU        0.538263    0.578516    0.343992     0.007504
AU1218   AU        0.577219    0.539229    0.344396     0.007504
AU1219   AU        0.578079    0.580962    0.303481     0.007504
AU1220   AU        0.616781    0.539458    0.307697     0.007504
AU1221   AU        0.616162    0.577016    0.343811     0.007504
AU1222   AU        0.654608    0.535345    0.345735     0.007504
AU1223   AU        0.657514    0.576734    0.305888     0.007504
AU1224   AU        0.694101    0.539458    0.307060     0.007504
AU1225   AU        0.694693    0.578079    0.348135     0.007504
AU1226   AU        0.731682    0.537065    0.345872     0.007504
PD1227   PD        0.733699    0.577501    0.308503     0.007504
AU1228   AU        0.767986    0.540861    0.304491     0.007504
PD1229   PD        0.771069    0.574718    0.345907     0.007504
PD1230   PD        0.807630    0.537021    0.343260     0.007504
PD1231   PD        0.809128    0.575539    0.306339     0.007504
PD1232   PD        0.845627    0.536941    0.306541     0.007504
PD1233   PD        0.845343    0.574755    0.346162     0.007504
PD1234   PD        0.883415    0.535908    0.346301     0.007504
PD1235   PD        0.880514    0.573660    0.307521     0.007504
PD1236   PD        0.042715    0.623365    0.344913     0.007504
PD1237   PD        0.079430    0.618794    0.306931     0.007504
PD1238   PD        0.080390    0.657127    0.346026     0.007504
PD1239   PD        0.115341    0.618008    0.345610     0.007504
PD1240   PD        0.114066    0.658463    0.306327     0.007504
AU1241   AU        0.151900    0.621098    0.306726     0.007504
PD1242   PD        0.152328    0.656908    0.347418     0.007504
AU1243   AU        0.189398    0.621418    0.345569     0.007504
AU1244   AU        0.192708    0.658348    0.307153     0.007504
AU1245   AU        0.227451    0.621755    0.307744     0.007504
AU1246   AU        0.229999    0.659721    0.347756     0.007504
AU1247   AU        0.265781    0.618109    0.344010     0.007504
PD1248   PD        0.268802    0.654775    0.305375     0.007504
AU1249   AU        0.305987    0.619996    0.306178     0.007504
AU1250   AU        0.305795    0.657269    0.347572     0.007504
AU1251   AU        0.345199    0.619066    0.343082     0.007504
AU1252   AU        0.344897    0.658555    0.305799     0.007504
AU1253   AU        0.383592    0.618967    0.305306     0.007504
AU1254   AU        0.383856    0.656205    0.345279     0.007504
AU1255   AU        0.422364    0.617171    0.344446     0.007504
AU1256   AU        0.424214    0.655157    0.305816     0.007504
AU1257   AU        0.465413    0.617064    0.306213     0.007504
AU1258   AU        0.459976    0.655646    0.343517     0.007504
AU1259   AU        0.500508    0.615590    0.346287     0.007504
AU1260   AU        0.502528    0.658906    0.308274     0.007504
AU1261   AU        0.538404    0.617656    0.307149     0.007504
AU1262   AU        0.541445    0.656976    0.344237     0.007504
AU1263   AU        0.576753    0.614584    0.343342     0.007504
AU1264   AU        0.577463    0.658244    0.306285     0.007504
AU1265   AU        0.616026    0.619498    0.304334     0.007504
AU1266   AU        0.614323    0.655215    0.343838     0.007504
AU1267   AU        0.654912    0.614750    0.343936     0.007504
AU1268   AU        0.656319    0.651489    0.307453     0.007504
AU1269   AU        0.696252    0.613873    0.306171     0.007504
AU1270   AU        0.693268    0.652356    0.346332     0.007504
PD1271   PD        0.732384    0.613234    0.346631     0.007504
PD1272   PD        0.731253    0.653544    0.308066     0.007504
PD1273   PD        0.770088    0.609897    0.307037     0.007504
AU1274   AU        0.771072    0.651771    0.344138     0.007504
AU1275   AU        0.807519    0.613589    0.346131     0.007504
PD1276   PD        0.806858    0.649993    0.305862     0.007504
PD1277   PD        0.844747    0.609855    0.305611     0.007504
PD1278   PD        0.844452    0.653881    0.345700     0.007504
PD1279   PD        0.884899    0.611734    0.345353     0.007504
PD1280   PD        0.115593    0.695459    0.345508     0.007504
PD1281   PD        0.115896    0.733474    0.306865     0.007504
AU1282   AU        0.155340    0.695907    0.307117     0.007504
PD1283   PD        0.156086    0.735469    0.347882     0.007504
AU1284   AU        0.192050    0.698225    0.345770     0.007504
PD1285   PD        0.190155    0.736426    0.306339     0.007504
AU1286   AU        0.229976    0.698476    0.307897     0.007504
PD1287   PD        0.231619    0.736196    0.345539     0.007504
AU1288   AU        0.266876    0.696150    0.344766     0.007504
AU1289   AU        0.269076    0.735650    0.309066     0.007504
AU1290   AU        0.306765    0.694219    0.307923     0.007504
AU1291   AU        0.308736    0.733809    0.346615     0.007504
AU1292   AU        0.345033    0.696119    0.345050     0.007504
PD1293   PD        0.346733    0.733475    0.306351     0.007504
AU1294   AU        0.384132    0.694355    0.305659     0.007504
AU1295   AU        0.382275    0.734140    0.344743     0.007504
AU1296   AU        0.422426    0.696107    0.345742     0.007504
AU1297   AU        0.423039    0.734286    0.306896     0.007504
AU1298   AU        0.463581    0.697116    0.305896     0.007504
AU1299   AU        0.461598    0.736880    0.346675     0.007504
AU1300   AU        0.500995    0.693192    0.348811     0.007504
AU1301   AU        0.500217    0.735539    0.309356     0.007504
AU1302   AU        0.538778    0.697390    0.307944     0.007504
AU1303   AU        0.538411    0.733780    0.347060     0.007504
AU1304   AU        0.577125    0.697016    0.345576     0.007504
AU1305   AU        0.577331    0.735644    0.306405     0.007504
AU1306   AU        0.615061    0.696330    0.308526     0.007504
PD1307   PD        0.615534    0.731918    0.344400     0.007504
AU1308   AU        0.654208    0.692095    0.346608     0.007504
PD1309   PD        0.651593    0.733106    0.306116     0.007504
AU1310   AU        0.693513    0.690499    0.308594     0.007504
PD1311   PD        0.692469    0.728776    0.345081     0.007504
PD1312   PD        0.731890    0.688432    0.345515     0.007504
AU1313   AU        0.731197    0.729569    0.306462     0.007504
PD1314   PD        0.771397    0.688963    0.307283     0.007504
PD1315   PD        0.769285    0.728680    0.345609     0.007504
PD1316   PD        0.806965    0.690539    0.345412     0.007504
PD1317   PD        0.807259    0.727476    0.308575     0.007504
AU1318   AU        0.152793    0.773432    0.307553     0.007504
PD1319   PD        0.194386    0.770275    0.346822     0.007504
PD1320   PD        0.191593    0.808913    0.314129     0.007504
PD1321   PD        0.229141    0.773743    0.308185     0.007504
PD1322   PD        0.230716    0.810866    0.346204     0.007504
PD1323   PD        0.269237    0.773480    0.347450     0.007504
PD1324   PD        0.268648    0.810623    0.308497     0.007504
PD1325   PD        0.307658    0.772572    0.308924     0.007504
PD1326   PD        0.306157    0.810152    0.346450     0.007504
PD1327   PD        0.347139    0.772171    0.346723     0.007504
AU1328   AU        0.348336    0.810023    0.307414     0.007504
PD1329   PD        0.382746    0.770268    0.307002     0.007504
PD1330   PD        0.385129    0.810800    0.345575     0.007504
AU1331   AU        0.420036    0.771065    0.344902     0.007504
PD1332   PD        0.420402    0.810109    0.306683     0.007504
AU1333   AU        0.461016    0.772984    0.307715     0.007504
AU1334   AU        0.459200    0.809943    0.344178     0.007504
AU1335   AU        0.498934    0.773576    0.347768     0.007504
AU1336   AU        0.499053    0.808253    0.307951     0.007504
AU1337   AU        0.538553    0.771079    0.306057     0.007504
AU1338   AU        0.541592    0.809948    0.346429     0.007504
PD1339   PD        0.578124    0.771180    0.346553     0.007504
AU1340   AU        0.580002    0.809244    0.310962     0.007504
PD1341   PD        0.616989    0.770474    0.309036     0.007504
AU1342   AU        0.617084    0.806479    0.347728     0.007504
AU1343   AU        0.656847    0.766686    0.347442     0.007504
PD1344   PD        0.655110    0.805938    0.309270     0.007504
PD1345   PD        0.692027    0.766948    0.309316     0.007504
PD1346   PD        0.693451    0.804163    0.348195     0.007504
PD1347   PD        0.730363    0.764481    0.346914     0.007504
PD1348   PD        0.730827    0.803049    0.311345     0.007504
PD1349   PD        0.769163    0.766832    0.308026     0.007504
PD1350   PD        0.268758    0.848297    0.345235     0.007504
PD1351   PD        0.310456    0.847894    0.309413     0.007504
PD1352   PD        0.308822    0.885072    0.347831     0.007504
PD1353   PD        0.348469    0.847379    0.346314     0.007504
PD1354   PD        0.347484    0.882892    0.309617     0.007504
PD1355   PD        0.384811    0.848739    0.309487     0.007504
PD1356   PD        0.383927    0.883523    0.350233     0.007504
PD1357   PD        0.422797    0.847112    0.345818     0.007504
PD1358   PD        0.423239    0.884204    0.309138     0.007504
PD1359   PD        0.461861    0.848338    0.308217     0.007504
AU1360   AU        0.461025    0.883381    0.348267     0.007504
AU1361   AU        0.498800    0.846580    0.343760     0.007504
PD1362   PD        0.500416    0.882486    0.307439     0.007504
PD1363   PD        0.540254    0.848418    0.310462     0.007504
PD1364   PD        0.540274    0.887609    0.344118     0.007504
PD1365   PD        0.578423    0.846749    0.348246     0.007504
PD1366   PD        0.581338    0.883197    0.308828     0.007504
PD1367   PD        0.619101    0.844265    0.308664     0.007504
PD1368   PD        0.619047    0.882246    0.349039     0.007504
PD1369   PD        0.657326    0.844183    0.347699     0.007504
PD1370   PD        0.268083    0.042631    0.380263     0.007504
PD1371   PD        0.305967    0.040967    0.420499     0.007504
PD1372   PD        0.344505    0.041172    0.378890     0.007504
PD1373   PD        0.380744    0.042459    0.421593     0.007504
PD1374   PD        0.422553    0.007889    0.423229     0.007504
AU1375   AU        0.419591    0.041523    0.380479     0.007504
PD1376   PD        0.457777    0.003860    0.381758     0.007504
PD1377   PD        0.459451    0.043241    0.419716     0.007504
PD1378   PD        0.496565    0.004069    0.420014     0.007504
PD1379   PD        0.495421    0.042496    0.381935     0.007504
PD1380   PD        0.535947    0.043018    0.421975     0.007504
PD1381   PD        0.573468    0.039816    0.382228     0.007504
PD1382   PD        0.612824    0.040079    0.419436     0.007504
PD1383   PD        0.648574    0.043730    0.381998     0.007504
PD1384   PD        0.153253    0.120212    0.423359     0.007504
PD1385   PD        0.190801    0.083429    0.421856     0.007504
PD1386   PD        0.191545    0.117603    0.384050     0.007504
PD1387   PD        0.228079    0.079697    0.382746     0.007504
PD1388   PD        0.227625    0.121307    0.421706     0.007504
PD1389   PD        0.265065    0.077694    0.421146     0.007504
AU1390   AU        0.264781    0.117622    0.382566     0.007504
AU1391   AU        0.304078    0.081550    0.382094     0.007504
AU1392   AU        0.302990    0.117285    0.419963     0.007504
AU1393   AU        0.342825    0.078183    0.420677     0.007504
PD1394   PD        0.342491    0.116676    0.381563     0.007504
PD1395   PD        0.380570    0.078839    0.380481     0.007504
PD1396   PD        0.382479    0.115275    0.419025     0.007504
PD1397   PD        0.420246    0.076451    0.416331     0.007504
AU1398   AU        0.420783    0.115997    0.381015     0.007504
PD1399   PD        0.459435    0.077147    0.380269     0.007504
PD1400   PD        0.458158    0.115095    0.419996     0.007504
PD1401   PD        0.497447    0.079655    0.419091     0.007504
AU1402   AU        0.495792    0.113654    0.379806     0.007504
AU1403   AU        0.535930    0.075318    0.382521     0.007504
AU1404   AU        0.537396    0.115309    0.421267     0.007504
PD1405   PD        0.576275    0.078327    0.422177     0.007504
AU1406   AU        0.573803    0.114893    0.383818     0.007504
PD1407   PD        0.612081    0.077526    0.383419     0.007504
PD1408   PD        0.614894    0.116466    0.422550     0.007504
PD1409   PD        0.650144    0.079980    0.421347     0.007504
PD1410   PD        0.650829    0.116918    0.381923     0.007504
PD1411   PD        0.688565    0.082454    0.384031     0.007504
AU1412   AU        0.687245    0.118025    0.423814     0.007504
PD1413   PD        0.726574    0.080902    0.423223     0.007504
PD1414   PD        0.724817    0.116889    0.385161     0.007504
PD1415   PD        0.765498    0.117235    0.420863     0.007504
PD1416   PD        0.080708    0.196595    0.421972     0.007504
PD1417   PD        0.115735    0.160439    0.422516     0.007504
PD1418   PD        0.115552    0.196153    0.380828     0.007504
PD1419   PD        0.153164    0.156044    0.382845     0.007504
AU1420   AU        0.154032    0.195932    0.416812     0.007504
PD1421   PD        0.188871    0.159027    0.421073     0.007504
AU1422   AU        0.191020    0.195048    0.382086     0.007504
PD1423   PD        0.225381    0.156785    0.381401     0.007504
AU1424   AU        0.225572    0.195120    0.420168     0.007504
AU1425   AU        0.266250    0.154433    0.424026     0.007504
AU1426   AU        0.265082    0.188815    0.383877     0.007504
PD1427   PD        0.304321    0.152399    0.379888     0.007504
AU1428   AU        0.303190    0.192521    0.416722     0.007504
AU1429   AU        0.343221    0.153511    0.420918     0.007504
AU1430   AU        0.345055    0.193879    0.382766     0.007504
AU1431   AU        0.383052    0.155192    0.381328     0.007504
AU1432   AU        0.381878    0.192414    0.421596     0.007504
AU1433   AU        0.421364    0.152325    0.420737     0.007504
AU1434   AU        0.419499    0.193964    0.379589     0.007504
AU1435   AU        0.460341    0.155757    0.379033     0.007504
AU1436   AU        0.460509    0.193811    0.420086     0.007504
AU1437   AU        0.497643    0.153987    0.418929     0.007504
AU1438   AU        0.496489    0.192418    0.380135     0.007504
AU1439   AU        0.537109    0.153977    0.381214     0.007504
AU1440   AU        0.534627    0.192658    0.418929     0.007504
PD1441   PD        0.575395    0.154238    0.423683     0.007504
AU1442   AU        0.573653    0.194830    0.382172     0.007504
AU1443   AU        0.609758    0.152696    0.383716     0.007504
AU1444   AU        0.611078    0.192102    0.420941     0.007504
PD1445   PD        0.649458    0.154560    0.420257     0.007504
PD1446   PD        0.649392    0.191465    0.385249     0.007504
PD1447   PD        0.690623    0.155578    0.383096     0.007504
PD1448   PD        0.692009    0.191281    0.422937     0.007504
PD1449   PD        0.727558    0.152728    0.423796     0.007504
PD1450   PD        0.728095    0.192121    0.383431     0.007504
AU1451   AU        0.765755    0.156642    0.383414     0.007504
PD1452   PD        0.765774    0.192681    0.421400     0.007504
PD1453   PD        0.803961    0.155289    0.420529     0.007504
PD1454   PD        0.807916    0.192377    0.381818     0.007504
PD1455   PD        0.844477    0.190039    0.421749     0.007504
PD1456   PD        0.041427    0.271418    0.381441     0.007504
PD1457   PD        0.077579    0.233511    0.384290     0.007504
PD1458   PD        0.076327    0.274829    0.420216     0.007504
PD1459   PD        0.113281    0.236485    0.422217     0.007504
PD1460   PD        0.113348    0.272267    0.381962     0.007504
PD1461   PD        0.149685    0.234090    0.381570     0.007504
AU1462   AU        0.149785    0.272961    0.421245     0.007504
AU1463   AU        0.189583    0.235667    0.420605     0.007504
AU1464   AU        0.186593    0.272918    0.382632     0.007504
AU1465   AU        0.225819    0.235396    0.383992     0.007504
AU1466   AU        0.229141    0.272151    0.422948     0.007504
AU1467   AU        0.267465    0.230453    0.421886     0.007504
AU1468   AU        0.268704    0.271585    0.383050     0.007504
AU1469   AU        0.304487    0.229346    0.380394     0.007504
AU1470   AU        0.304253    0.269199    0.423349     0.007504
AU1471   AU        0.342300    0.230153    0.419239     0.007504
AU1472   AU        0.343952    0.268698    0.383043     0.007504
AU1473   AU        0.382274    0.230340    0.381997     0.007504
AU1474   AU        0.382958    0.271043    0.422305     0.007504
AU1475   AU        0.420252    0.230566    0.420628     0.007504
AU1476   AU        0.420484    0.266679    0.380769     0.007504
AU1477   AU        0.458141    0.229579    0.380980     0.007504
AU1478   AU        0.461582    0.270224    0.424304     0.007504
AU1479   AU        0.498470    0.231988    0.421572     0.007504
AU1480   AU        0.497309    0.270174    0.380932     0.007504
AU1481   AU        0.536419    0.228923    0.382015     0.007504
AU1482   AU        0.537777    0.269318    0.419409     0.007504
AU1483   AU        0.571964    0.233014    0.423260     0.007504
AU1484   AU        0.577294    0.269778    0.383551     0.007504
AU1485   AU        0.613946    0.230337    0.384511     0.007504
AU1486   AU        0.613607    0.269254    0.422280     0.007504
AU1487   AU        0.649673    0.228465    0.421054     0.007504
AU1488   AU        0.652127    0.269262    0.383121     0.007504
AU1489   AU        0.688728    0.229585    0.382018     0.007504
AU1490   AU        0.690616    0.267730    0.421602     0.007504
AU1491   AU        0.728667    0.230486    0.418925     0.007504
AU1492   AU        0.730243    0.266486    0.382380     0.007504
AU1493   AU        0.771170    0.226980    0.381464     0.007504
AU1494   AU        0.770620    0.267397    0.421824     0.007504
PD1495   PD        0.807595    0.228559    0.421763     0.007504
PD1496   PD        0.805647    0.266465    0.383175     0.007504
AU1497   AU        0.844672    0.229475    0.382134     0.007504
PD1498   PD        0.845457    0.267722    0.421395     0.007504
PD1499   PD        0.882134    0.268049    0.382731     0.007504
PD1500   PD        0.039030    0.313728    0.422662     0.007504
PD1501   PD        0.039448    0.349765    0.381405     0.007504
PD1502   PD        0.075247    0.311583    0.382999     0.007504
PD1503   PD        0.077222    0.350023    0.421088     0.007504
AU1504   AU        0.114846    0.311954    0.422264     0.007504
PD1505   PD        0.114063    0.347932    0.380980     0.007504
PD1506   PD        0.151921    0.311403    0.382006     0.007504
AU1507   AU        0.154043    0.349937    0.419095     0.007504
AU1508   AU        0.191021    0.309471    0.422206     0.007504
AU1509   AU        0.193179    0.348822    0.381542     0.007504
AU1510   AU        0.229267    0.309777    0.383031     0.007504
AU1511   AU        0.226869    0.349044    0.420738     0.007504
AU1512   AU        0.265879    0.309427    0.421251     0.007504
AU1513   AU        0.268828    0.349987    0.383003     0.007504
AU1514   AU        0.305443    0.309628    0.383412     0.007504
AU1515   AU        0.305516    0.343105    0.425211     0.007504
AU1516   AU        0.344337    0.307034    0.423693     0.007504
AU1517   AU        0.343603    0.346360    0.384587     0.007504
AU1518   AU        0.383825    0.306704    0.382068     0.007504
AU1519   AU        0.384854    0.345595    0.421175     0.007504
AU1520   AU        0.421697    0.307679    0.419703     0.007504
AU1521   AU        0.421324    0.345469    0.380309     0.007504
AU1522   AU        0.459744    0.307063    0.381975     0.007504
AU1523   AU        0.458695    0.345883    0.418841     0.007504
AU1524   AU        0.500112    0.310294    0.420705     0.007504
AU1525   AU        0.498649    0.346083    0.378714     0.007504
AU1526   AU        0.539116    0.309304    0.383855     0.007504
AU1527   AU        0.538448    0.347922    0.424501     0.007504
AU1528   AU        0.575292    0.310286    0.421836     0.007504
AU1529   AU        0.575519    0.347556    0.379712     0.007504
AU1530   AU        0.614288    0.309564    0.383493     0.007504
AU1531   AU        0.615972    0.346451    0.421729     0.007504
AU1532   AU        0.653106    0.307570    0.422146     0.007504
AU1533   AU        0.654081    0.345478    0.379564     0.007504
AU1534   AU        0.693312    0.306476    0.384251     0.007504
AU1535   AU        0.694266    0.344994    0.423409     0.007504
AU1536   AU        0.729650    0.306161    0.422658     0.007504
AU1537   AU        0.731474    0.345861    0.385106     0.007504
AU1538   AU        0.772296    0.306488    0.384819     0.007504
AU1539   AU        0.771246    0.341899    0.423510     0.007504
PD1540   PD        0.808928    0.307087    0.423801     0.007504
AU1541   AU        0.806112    0.347327    0.381288     0.007504
PD1542   PD        0.843479    0.304397    0.384683     0.007504
AU1543   AU        0.849175    0.344991    0.421785     0.007504
PD1544   PD        0.881700    0.302454    0.421524     0.007504
PD1545   PD        0.883337    0.342685    0.381329     0.007504
PD1546   PD        0.002424    0.426650    0.423746     0.007504
PD1547   PD        0.036849    0.387920    0.423330     0.007504
PD1548   PD        0.038386    0.428821    0.383830     0.007504
PD1549   PD        0.074888    0.386645    0.382946     0.007504
AU1550   AU        0.073481    0.427895    0.420710     0.007504
AU1551   AU        0.113396    0.385358    0.421002     0.007504
AU1552   AU        0.110845    0.425850    0.383926     0.007504
AU1553   AU        0.152218    0.384843    0.381337     0.007504
AU1554   AU        0.149381    0.424231    0.420177     0.007504
AU1555   AU        0.187429    0.388844    0.419939     0.007504
AU1556   AU        0.192729    0.425245    0.380947     0.007504
AU1557   AU        0.228761    0.387317    0.382390     0.007504
AU1558   AU        0.227540    0.426205    0.422367     0.007504
AU1559   AU        0.267723    0.386995    0.420751     0.007504
AU1560   AU        0.266525    0.425411    0.386852     0.007504
AU1561   AU        0.305826    0.387547    0.382184     0.007504
AU1562   AU        0.309444    0.425360    0.421569     0.007504
AU1563   AU        0.344628    0.383442    0.423037     0.007504
AU1564   AU        0.344294    0.423807    0.382942     0.007504
AU1565   AU        0.382624    0.383891    0.384420     0.007504
AU1566   AU        0.381604    0.423901    0.419409     0.007504
AU1567   AU        0.420303    0.384235    0.422028     0.007504
AU1568   AU        0.420392    0.422499    0.383249     0.007504
AU1569   AU        0.460700    0.384033    0.380002     0.007504
AU1570   AU        0.460284    0.421486    0.421629     0.007504
AU1571   AU        0.497862    0.383987    0.416803     0.007504
AU1572   AU        0.499941    0.426497    0.382895     0.007504
AU1573   AU        0.537805    0.384527    0.381808     0.007504
AU1574   AU        0.539885    0.422132    0.421284     0.007504
AU1575   AU        0.576724    0.384104    0.421782     0.007504
AU1576   AU        0.574827    0.422030    0.383485     0.007504
AU1577   AU        0.616736    0.387249    0.384306     0.007504
AU1578   AU        0.615916    0.423193    0.422540     0.007504
AU1579   AU        0.654230    0.384542    0.422724     0.007504
AU1580   AU        0.654259    0.424056    0.385149     0.007504
AU1581   AU        0.692017    0.382963    0.381397     0.007504
AU1582   AU        0.691464    0.421252    0.422752     0.007504
AU1583   AU        0.733910    0.384858    0.421283     0.007504
AU1584   AU        0.731684    0.422585    0.382707     0.007504
AU1585   AU        0.767885    0.384365    0.382492     0.007504
AU1586   AU        0.772414    0.421519    0.420203     0.007504
AU1587   AU        0.811816    0.382307    0.421299     0.007504
PD1588   PD        0.810531    0.421664    0.380747     0.007504
PD1589   PD        0.847338    0.381365    0.381916     0.007504
AU1590   AU        0.848313    0.419889    0.418770     0.007504
PD1591   PD        0.883900    0.380941    0.419817     0.007504
PD1592   PD        0.883638    0.419646    0.376831     0.007504
PD1593   PD        0.919684    0.419098    0.421381     0.007504
PD1594   PD        0.000769    0.465381    0.387264     0.007504
PD1595   PD        0.004115    0.504399    0.424039     0.007504
PD1596   PD        0.039052    0.465983    0.424705     0.007504
PD1597   PD        0.039265    0.502861    0.385260     0.007504
PD1598   PD        0.076881    0.466546    0.384421     0.007504
PD1599   PD        0.077264    0.504308    0.422003     0.007504
AU1600   AU        0.115106    0.464609    0.421874     0.007504
PD1601   PD        0.113959    0.503847    0.383902     0.007504
AU1602   AU        0.151040    0.465632    0.382867     0.007504
AU1603   AU        0.152858    0.505206    0.423106     0.007504
AU1604   AU        0.189135    0.465314    0.418964     0.007504
AU1605   AU        0.191628    0.505206    0.381330     0.007504
AU1606   AU        0.229860    0.462994    0.385904     0.007504
AU1607   AU        0.224861    0.503146    0.423163     0.007504
AU1608   AU        0.266900    0.460956    0.422659     0.007504
AU1609   AU        0.266187    0.500566    0.383396     0.007504
AU1610   AU        0.305098    0.464609    0.382768     0.007504
AU1611   AU        0.305189    0.501593    0.421470     0.007504
AU1612   AU        0.345819    0.465081    0.422642     0.007504
AU1613   AU        0.345475    0.504064    0.384981     0.007504
AU1614   AU        0.381907    0.464118    0.383723     0.007504
AU1615   AU        0.383176    0.502060    0.420806     0.007504
AU1616   AU        0.419356    0.462590    0.420327     0.007504
AU1617   AU        0.420631    0.503027    0.381748     0.007504
AU1618   AU        0.459671    0.461619    0.383678     0.007504
AU1619   AU        0.456323    0.501569    0.422006     0.007504
AU1620   AU        0.498834    0.461465    0.421190     0.007504
AU1621   AU        0.497048    0.501984    0.385541     0.007504
AU1622   AU        0.538287    0.462813    0.382941     0.007504
AU1623   AU        0.537711    0.498453    0.420535     0.007504
AU1624   AU        0.577908    0.458047    0.421442     0.007504
AU1625   AU        0.576943    0.498283    0.383474     0.007504
AU1626   AU        0.617351    0.462101    0.383106     0.007504
AU1627   AU        0.617605    0.502249    0.420893     0.007504
AU1628   AU        0.655938    0.463838    0.420571     0.007504
AU1629   AU        0.655854    0.500196    0.382696     0.007504
AU1630   AU        0.692789    0.462897    0.384782     0.007504
AU1631   AU        0.693595    0.501373    0.420936     0.007504
AU1632   AU        0.728847    0.461939    0.421969     0.007504
PD1633   PD        0.729326    0.501574    0.383503     0.007504
AU1634   AU        0.769756    0.461524    0.383354     0.007504
AU1635   AU        0.770583    0.498890    0.423450     0.007504
AU1636   AU        0.809846    0.455939    0.419463     0.007504
AU1637   AU        0.808765    0.497982    0.381828     0.007504
PD1638   PD        0.846393    0.460602    0.380507     0.007504
AU1639   AU        0.844615    0.495550    0.421572     0.007504
AU1640   AU        0.882775    0.459067    0.419093     0.007504
PD1641   PD        0.884482    0.495314    0.381857     0.007504
PD1642   PD        0.922812    0.456408    0.377443     0.007504
PD1643   PD        0.923812    0.492399    0.420666     0.007504
PD1644   PD        0.038796    0.542942    0.422179     0.007504
PD1645   PD        0.041715    0.581749    0.385331     0.007504
PD1646   PD        0.074735    0.540864    0.384202     0.007504
PD1647   PD        0.077965    0.580947    0.423490     0.007504
AU1648   AU        0.113229    0.542017    0.421139     0.007504
PD1649   PD        0.115728    0.581335    0.383921     0.007504
PD1650   PD        0.152170    0.544004    0.385125     0.007504
AU1651   AU        0.151319    0.580184    0.424635     0.007504
AU1652   AU        0.189198    0.542212    0.423159     0.007504
AU1653   AU        0.190371    0.581649    0.385895     0.007504
AU1654   AU        0.229462    0.541751    0.382867     0.007504
AU1655   AU        0.229773    0.579360    0.422254     0.007504
AU1656   AU        0.267605    0.540274    0.422517     0.007504
AU1657   AU        0.265606    0.581561    0.384643     0.007504
AU1658   AU        0.304873    0.541643    0.381519     0.007504
AU1659   AU        0.305697    0.579276    0.422626     0.007504
AU1660   AU        0.344491    0.542683    0.422868     0.007504
AU1661   AU        0.343680    0.580992    0.382206     0.007504
AU1662   AU        0.384704    0.542853    0.382767     0.007504
AU1663   AU        0.381576    0.580785    0.423142     0.007504
AU1664   AU        0.421730    0.543018    0.419877     0.007504
AU1665   AU        0.422825    0.581468    0.383497     0.007504
AU1666   AU        0.459473    0.539541    0.383405     0.007504
AU1667   AU        0.461395    0.577477    0.422669     0.007504
AU1668   AU        0.499446    0.539166    0.422304     0.007504
AU1669   AU        0.499559    0.575648    0.383790     0.007504
AU1670   AU        0.539151    0.539945    0.382818     0.007504
AU1671   AU        0.537964    0.577034    0.423659     0.007504
AU1672   AU        0.577409    0.538390    0.422954     0.007504
AU1673   AU        0.577859    0.576664    0.382370     0.007504
AU1674   AU        0.616542    0.538363    0.385008     0.007504
AU1675   AU        0.617208    0.578339    0.421847     0.007504
AU1676   AU        0.655734    0.540946    0.420668     0.007504
AU1677   AU        0.656031    0.577238    0.384708     0.007504
AU1678   AU        0.691760    0.538655    0.383962     0.007504
AU1679   AU        0.692855    0.575691    0.422920     0.007504
AU1680   AU        0.733142    0.538312    0.421800     0.007504
AU1681   AU        0.732301    0.576659    0.386260     0.007504
PD1682   PD        0.772752    0.536881    0.383514     0.007504
AU1683   AU        0.770589    0.574600    0.421592     0.007504
PD1684   PD        0.809332    0.538709    0.420556     0.007504
PD1685   PD        0.807623    0.574337    0.383266     0.007504
PD1686   PD        0.845454    0.537715    0.382815     0.007504
AU1687   AU        0.846970    0.574750    0.420280     0.007504
AU1688   AU        0.884008    0.533474    0.420751     0.007504
PD1689   PD        0.883117    0.576270    0.381336     0.007504
PD1690   PD        0.040952    0.621291    0.423638     0.007504
PD1691   PD        0.044940    0.660331    0.384466     0.007504
PD1692   PD        0.077808    0.618334    0.382759     0.007504
PD1693   PD        0.079492    0.659538    0.423765     0.007504
AU1694   AU        0.113252    0.619590    0.423719     0.007504
PD1695   PD        0.115330    0.656904    0.381608     0.007504
AU1696   AU        0.149663    0.620372    0.385607     0.007504
AU1697   AU        0.152834    0.658918    0.425021     0.007504
AU1698   AU        0.191485    0.620560    0.424036     0.007504
AU1699   AU        0.188419    0.658779    0.385304     0.007504
AU1700   AU        0.226891    0.619121    0.386622     0.007504
AU1701   AU        0.228024    0.658484    0.424008     0.007504
AU1702   AU        0.267273    0.617483    0.424419     0.007504
AU1703   AU        0.266978    0.654480    0.385605     0.007504
AU1704   AU        0.301806    0.618742    0.384873     0.007504
AU1705   AU        0.306361    0.659377    0.423063     0.007504
AU1706   AU        0.342868    0.619631    0.420809     0.007504
AU1707   AU        0.345094    0.657113    0.383808     0.007504
AU1708   AU        0.382160    0.617164    0.382639     0.007504
AU1709   AU        0.380803    0.656456    0.422504     0.007504
AU1710   AU        0.420568    0.617318    0.420375     0.007504
AU1711   AU        0.423076    0.657689    0.383549     0.007504
AU1712   AU        0.460034    0.617727    0.382362     0.007504
AU1713   AU        0.461603    0.656273    0.421841     0.007504
AU1714   AU        0.498951    0.618042    0.422064     0.007504
AU1715   AU        0.498774    0.656499    0.384608     0.007504
AU1716   AU        0.537984    0.616450    0.382893     0.007504
AU1717   AU        0.539508    0.654099    0.421317     0.007504
AU1718   AU        0.577100    0.615964    0.421858     0.007504
AU1719   AU        0.578885    0.652825    0.380077     0.007504
AU1720   AU        0.616831    0.614374    0.382745     0.007504
AU1721   AU        0.616685    0.653344    0.421743     0.007504
AU1722   AU        0.655781    0.614125    0.422117     0.007504
AU1723   AU        0.653821    0.651920    0.383219     0.007504
AU1724   AU        0.695039    0.616376    0.385530     0.007504
AU1725   AU        0.694547    0.653918    0.424252     0.007504
PD1726   PD        0.733486    0.615743    0.422965     0.007504
AU1727   AU        0.733161    0.653448    0.385688     0.007504
AU1728   AU        0.768338    0.613978    0.384368     0.007504
PD1729   PD        0.771011    0.652200    0.423095     0.007504
AU1730   AU        0.807309    0.615124    0.422033     0.007504
PD1731   PD        0.807476    0.655216    0.384073     0.007504
PD1732   PD        0.843698    0.613933    0.382902     0.007504
PD1733   PD        0.845432    0.652238    0.420462     0.007504
PD1734   PD        0.882405    0.616694    0.419452     0.007504
PD1735   PD        0.881793    0.653980    0.382016     0.007504
PD1736   PD        0.080942    0.696594    0.385462     0.007504
PD1737   PD        0.081639    0.736251    0.423775     0.007504
PD1738   PD        0.118005    0.696956    0.422630     0.007504
PD1739   PD        0.117776    0.735939    0.386160     0.007504
PD1740   PD        0.151222    0.696689    0.382593     0.007504
PD1741   PD        0.154797    0.735275    0.422309     0.007504
PD1742   PD        0.193300    0.697542    0.423914     0.007504
PD1743   PD        0.192462    0.733478    0.385907     0.007504
AU1744   AU        0.229266    0.696944    0.384779     0.007504
AU1745   AU        0.228479    0.736092    0.426036     0.007504
AU1746   AU        0.269791    0.695846    0.421765     0.007504
AU1747   AU        0.267608    0.735658    0.386173     0.007504
AU1748   AU        0.306913    0.698046    0.383684     0.007504
PD1749   PD        0.307998    0.736942    0.422024     0.007504
AU1750   AU        0.345568    0.697474    0.422653     0.007504
AU1751   AU        0.346517    0.736049    0.384244     0.007504
AU1752   AU        0.385788    0.694214    0.384246     0.007504
AU1753   AU        0.383746    0.733879    0.424500     0.007504
AU1754   AU        0.425658    0.696151    0.421849     0.007504
AU1755   AU        0.419976    0.735821    0.386875     0.007504
AU1756   AU        0.461395    0.695717    0.384021     0.007504
AU1757   AU        0.460654    0.733916    0.422529     0.007504
AU1758   AU        0.499278    0.694829    0.423020     0.007504
AU1759   AU        0.500612    0.733467    0.385533     0.007504
AU1760   AU        0.538750    0.694074    0.383305     0.007504
AU1761   AU        0.539959    0.733851    0.422791     0.007504
AU1762   AU        0.578130    0.692603    0.421575     0.007504
AU1763   AU        0.575293    0.732726    0.383726     0.007504
AU1764   AU        0.613804    0.696318    0.383889     0.007504
AU1765   AU        0.614475    0.732481    0.421219     0.007504
AU1766   AU        0.653021    0.693803    0.423733     0.007504
AU1767   AU        0.655974    0.728827    0.384129     0.007504
PD1768   PD        0.696982    0.687450    0.384197     0.007504
AU1769   AU        0.693372    0.727693    0.422277     0.007504
AU1770   AU        0.732808    0.691446    0.425375     0.007504
AU1771   AU        0.731331    0.727221    0.384534     0.007504
PD1772   PD        0.770304    0.689918    0.385044     0.007504
PD1773   PD        0.768570    0.729065    0.423521     0.007504
PD1774   PD        0.807992    0.692362    0.423630     0.007504
PD1775   PD        0.805626    0.726953    0.385328     0.007504
PD1776   PD        0.843584    0.692283    0.384737     0.007504
PD1777   PD        0.846832    0.727474    0.421153     0.007504
PD1778   PD        0.118823    0.771137    0.421827     0.007504
PD1779   PD        0.155087    0.771821    0.384336     0.007504
PD1780   PD        0.155022    0.809178    0.423402     0.007504
AU1781   AU        0.193827    0.771804    0.423085     0.007504
PD1782   PD        0.193497    0.809493    0.387465     0.007504
PD1783   PD        0.231165    0.770867    0.385086     0.007504
AU1784   AU        0.231288    0.809171    0.425730     0.007504
PD1785   PD        0.268455    0.772296    0.426490     0.007504
PD1786   PD        0.266705    0.809746    0.385972     0.007504
AU1787   AU        0.307168    0.772787    0.384205     0.007504
AU1788   AU        0.307286    0.809790    0.422828     0.007504
PD1789   PD        0.345632    0.772526    0.424846     0.007504
PD1790   PD        0.345712    0.809898    0.385082     0.007504
AU1791   AU        0.383363    0.774111    0.384705     0.007504
PD1792   PD        0.381175    0.808627    0.424152     0.007504
AU1793   AU        0.420542    0.774922    0.423365     0.007504
AU1794   AU        0.421445    0.810613    0.384985     0.007504
AU1795   AU        0.460179    0.772260    0.385770     0.007504
PD1796   PD        0.462965    0.811091    0.425714     0.007504
AU1797   AU        0.499062    0.772778    0.424443     0.007504
PD1798   PD        0.502315    0.810866    0.384734     0.007504
AU1799   AU        0.542584    0.772351    0.386569     0.007504
AU1800   AU        0.541473    0.808234    0.423431     0.007504
PD1801   PD        0.579461    0.770085    0.424326     0.007504
AU1802   AU        0.580196    0.810579    0.385713     0.007504
AU1803   AU        0.616870    0.767651    0.382335     0.007504
PD1804   PD        0.615273    0.806045    0.423123     0.007504
AU1805   AU        0.654421    0.766274    0.422639     0.007504
PD1806   PD        0.655074    0.804406    0.388777     0.007504
PD1807   PD        0.694548    0.767529    0.386467     0.007504
PD1808   PD        0.694324    0.805362    0.426225     0.007504
PD1809   PD        0.728921    0.767135    0.421846     0.007504
PD1810   PD        0.731122    0.804674    0.382681     0.007504
PD1811   PD        0.768986    0.766553    0.385063     0.007504
PD1812   PD        0.769637    0.801170    0.424387     0.007504
PD1813   PD        0.809691    0.764904    0.422225     0.007504
PD1814   PD        0.191861    0.848111    0.424202     0.007504
PD1815   PD        0.228674    0.849126    0.383993     0.007504
PD1816   PD        0.267681    0.844593    0.421406     0.007504
PD1817   PD        0.269712    0.885639    0.385707     0.007504
PD1818   PD        0.306698    0.845880    0.385819     0.007504
PD1819   PD        0.307703    0.885600    0.421750     0.007504
PD1820   PD        0.344223    0.848151    0.424568     0.007504
PD1821   PD        0.347188    0.884811    0.385297     0.007504
PD1822   PD        0.384900    0.844856    0.385568     0.007504
PD1823   PD        0.383239    0.883457    0.424241     0.007504
PD1824   PD        0.419518    0.845959    0.426203     0.007504
PD1825   PD        0.422315    0.880329    0.390616     0.007504
PD1826   PD        0.458317    0.845261    0.384198     0.007504
PD1827   PD        0.460418    0.880608    0.424058     0.007504
AU1828   AU        0.500770    0.848350    0.423229     0.007504
AU1829   AU        0.503306    0.884094    0.382345     0.007504
AU1830   AU        0.537670    0.847481    0.385443     0.007504
PD1831   PD        0.541433    0.884744    0.424149     0.007504
PD1832   PD        0.578258    0.847848    0.423688     0.007504
PD1833   PD        0.579406    0.882335    0.385375     0.007504
PD1834   PD        0.619441    0.844791    0.386803     0.007504
PD1835   PD        0.619455    0.881247    0.426505     0.007504
PD1836   PD        0.656149    0.841219    0.424669     0.007504
PD1837   PD        0.654989    0.878113    0.389461     0.007504
PD1838   PD        0.691971    0.841002    0.388084     0.007504
PD1839   PD        0.731599    0.839799    0.424122     0.007504
PD1840   PD        0.423256    0.918870    0.426875     0.007504
PD1841   PD        0.461636    0.918772    0.386645     0.007504
PD1842   PD        0.500236    0.916793    0.425482     0.007504
PD1843   PD        0.268367    0.041547    0.460789     0.007504
PD1844   PD        0.305604    0.042388    0.497331     0.007504
PD1845   PD        0.343402    0.043101    0.460586     0.007504
PD1846   PD        0.380934    0.000769    0.459035     0.007504
AU1847   AU        0.381191    0.040523    0.498183     0.007504
PD1848   PD        0.421948    0.003558    0.497870     0.007504
PD1849   PD        0.419887    0.041350    0.460275     0.007504
PD1850   PD        0.461882    0.004212    0.457251     0.007504
PD1851   PD        0.457212    0.040860    0.498424     0.007504
PD1852   PD        0.496039    0.006613    0.495608     0.007504
PD1853   PD        0.496292    0.043160    0.456428     0.007504
AU1854   AU        0.533066    0.002773    0.457199     0.007504
PD1855   PD        0.535262    0.040319    0.495224     0.007504
PD1856   PD        0.573153    0.039769    0.458902     0.007504
PD1857   PD        0.613114    0.041851    0.497707     0.007504
PD1858   PD        0.652904    0.041692    0.457129     0.007504
PD1859   PD        0.152715    0.118740    0.498507     0.007504
PD1860   PD        0.191274    0.081704    0.497838     0.007504
PD1861   PD        0.191108    0.119785    0.460074     0.007504
PD1862   PD        0.227192    0.081244    0.460004     0.007504
PD1863   PD        0.230684    0.120043    0.497721     0.007504
PD1864   PD        0.267298    0.080722    0.498219     0.007504
AU1865   AU        0.268431    0.116290    0.459308     0.007504
PD1866   PD        0.303839    0.078743    0.459511     0.007504
PD1867   PD        0.305734    0.117365    0.498541     0.007504
PD1868   PD        0.343844    0.080494    0.499312     0.007504
AU1869   AU        0.341869    0.116169    0.460533     0.007504
PD1870   PD        0.381484    0.078935    0.458795     0.007504
AU1871   AU        0.380917    0.117459    0.497454     0.007504
AU1872   AU        0.418766    0.077573    0.496017     0.007504
AU1873   AU        0.418953    0.113713    0.456164     0.007504
AU1874   AU        0.457191    0.078410    0.457167     0.007504
PD1875   PD        0.456587    0.115759    0.496797     0.007504
AU1876   AU        0.496745    0.075822    0.500075     0.007504
AU1877   AU        0.496291    0.115022    0.460046     0.007504
PD1878   PD        0.535524    0.079577    0.459470     0.007504
AU1879   AU        0.534512    0.114416    0.497150     0.007504
PD1880   PD        0.573814    0.077209    0.498467     0.007504
AU1881   AU        0.577734    0.116583    0.459208     0.007504
AU1882   AU        0.612945    0.076007    0.458121     0.007504
PD1883   PD        0.612416    0.115218    0.498048     0.007504
PD1884   PD        0.650632    0.075945    0.498710     0.007504
AU1885   AU        0.649934    0.115162    0.461216     0.007504
PD1886   PD        0.687584    0.077720    0.459690     0.007504
PD1887   PD        0.687058    0.116361    0.497869     0.007504
PD1888   PD        0.725211    0.077843    0.499673     0.007504
PD1889   PD        0.725802    0.116210    0.461940     0.007504
PD1890   PD        0.764794    0.116425    0.499949     0.007504
PD1891   PD        0.076084    0.195959    0.495383     0.007504
PD1892   PD        0.114232    0.159215    0.497497     0.007504
PD1893   PD        0.117335    0.198508    0.458329     0.007504
PD1894   PD        0.153423    0.158854    0.460489     0.007504
PD1895   PD        0.152032    0.196327    0.498619     0.007504
PD1896   PD        0.189408    0.153558    0.498965     0.007504
PD1897   PD        0.188526    0.195783    0.459529     0.007504
PD1898   PD        0.226995    0.158524    0.458144     0.007504
PD1899   PD        0.226780    0.193736    0.495966     0.007504
AU1900   AU        0.267325    0.157984    0.498727     0.007504
PD1901   PD        0.265654    0.193127    0.457848     0.007504
AU1902   AU        0.305480    0.155005    0.462340     0.007504
AU1903   AU        0.304831    0.195569    0.498499     0.007504
PD1904   PD        0.343680    0.157271    0.496194     0.007504
AU1905   AU        0.341786    0.193538    0.459634     0.007504
AU1906   AU        0.381988    0.154959    0.458460     0.007504
PD1907   PD        0.381792    0.192546    0.497928     0.007504
AU1908   AU        0.415773    0.152826    0.497221     0.007504
AU1909   AU        0.419050    0.193401    0.459663     0.007504
AU1910   AU        0.457777    0.154574    0.459209     0.007504
AU1911   AU        0.457909    0.190546    0.499560     0.007504
AU1912   AU        0.497978    0.152137    0.496911     0.007504
AU1913   AU        0.495767    0.189843    0.458060     0.007504
AU1914   AU        0.536284    0.154461    0.459365     0.007504
AU1915   AU        0.535667    0.190878    0.497565     0.007504
PD1916   PD        0.573490    0.154770    0.498656     0.007504
PD1917   PD        0.573482    0.191923    0.459187     0.007504
PD1918   PD        0.613503    0.153737    0.458414     0.007504
AU1919   AU        0.616379    0.188254    0.496562     0.007504
PD1920   PD        0.652912    0.152750    0.498085     0.007504
AU1921   AU        0.652335    0.193610    0.460858     0.007504
PD1922   PD        0.689266    0.155846    0.459913     0.007504
PD1923   PD        0.694666    0.190759    0.499169     0.007504
PD1924   PD        0.728410    0.153454    0.498418     0.007504
PD1925   PD        0.729147    0.190420    0.458108     0.007504
PD1926   PD        0.767547    0.152982    0.459597     0.007504
PD1927   PD        0.767960    0.192524    0.498697     0.007504
PD1928   PD        0.801907    0.154076    0.499200     0.007504
AU1929   AU        0.806494    0.191223    0.460427     0.007504
PD1930   PD        0.842159    0.190358    0.500075     0.007504
PD1931   PD        0.039750    0.275263    0.460270     0.007504
PD1932   PD        0.076670    0.236679    0.459778     0.007504
PD1933   PD        0.076798    0.275162    0.499225     0.007504
AU1934   AU        0.112028    0.233959    0.499772     0.007504
PD1935   PD        0.112280    0.274328    0.462067     0.007504
PD1936   PD        0.153151    0.234485    0.459796     0.007504
PD1937   PD        0.151733    0.277183    0.496836     0.007504
PD1938   PD        0.188795    0.233045    0.497138     0.007504
AU1939   AU        0.190797    0.273624    0.460522     0.007504
AU1940   AU        0.225481    0.232711    0.459544     0.007504
AU1941   AU        0.226402    0.268428    0.495502     0.007504
PD1942   PD        0.265569    0.232116    0.497144     0.007504
AU1943   AU        0.266145    0.268894    0.461521     0.007504
AU1944   AU        0.304395    0.230269    0.461672     0.007504
AU1945   AU        0.303157    0.269025    0.501659     0.007504
AU1946   AU        0.344995    0.231574    0.499402     0.007504
AU1947   AU        0.343053    0.269230    0.459448     0.007504
AU1948   AU        0.380057    0.231868    0.457208     0.007504
AU1949   AU        0.381495    0.267947    0.497200     0.007504
AU1950   AU        0.421299    0.229649    0.500507     0.007504
AU1951   AU        0.421494    0.269325    0.459555     0.007504
AU1952   AU        0.460825    0.229103    0.463266     0.007504
AU1953   AU        0.458171    0.269041    0.499590     0.007504
AU1954   AU        0.497823    0.227831    0.501852     0.007504
AU1955   AU        0.499103    0.269192    0.459883     0.007504
AU1956   AU        0.534193    0.232558    0.459668     0.007504
AU1957   AU        0.535027    0.266682    0.501517     0.007504
AU1958   AU        0.574686    0.228479    0.496130     0.007504
AU1959   AU        0.572067    0.272700    0.462169     0.007504
AU1960   AU        0.614250    0.232147    0.462782     0.007504
AU1961   AU        0.616098    0.269259    0.501934     0.007504
AU1962   AU        0.653028    0.231501    0.495402     0.007504
AU1963   AU        0.654349    0.270709    0.458698     0.007504
AU1964   AU        0.692045    0.228863    0.460143     0.007504
AU1965   AU        0.694942    0.267145    0.501217     0.007504
AU1966   AU        0.730931    0.229414    0.498420     0.007504
AU1967   AU        0.731912    0.269262    0.460269     0.007504
PD1968   PD        0.767770    0.228214    0.458517     0.007504
PD1969   PD        0.769468    0.264085    0.497508     0.007504
PD1970   PD        0.807043    0.228226    0.495892     0.007504
PD1971   PD        0.808672    0.266969    0.460149     0.007504
PD1972   PD        0.844607    0.229175    0.460364     0.007504
PD1973   PD        0.845065    0.266251    0.498730     0.007504
PD1974   PD        0.882138    0.267300    0.459701     0.007504
PD1975   PD        0.039063    0.313170    0.499078     0.007504
PD1976   PD        0.039439    0.352171    0.462311     0.007504
PD1977   PD        0.075923    0.312253    0.458970     0.007504
AU1978   AU        0.076069    0.350670    0.501643     0.007504
PD1979   PD        0.113210    0.310994    0.496755     0.007504
PD1980   PD        0.110831    0.347515    0.459887     0.007504
AU1981   AU        0.151152    0.313042    0.461124     0.007504
AU1982   AU        0.149686    0.349189    0.501661     0.007504
AU1983   AU        0.189885    0.310390    0.497032     0.007504
AU1984   AU        0.189146    0.349929    0.459608     0.007504
AU1985   AU        0.228629    0.311613    0.461386     0.007504
AU1986   AU        0.227675    0.350392    0.496400     0.007504
AU1987   AU        0.263946    0.308987    0.500282     0.007504
AU1988   AU        0.266382    0.350471    0.461809     0.007504
AU1989   AU        0.303114    0.306332    0.464712     0.007504
AU1990   AU        0.304146    0.347701    0.500626     0.007504
AU1991   AU        0.342552    0.307338    0.501417     0.007504
AU1992   AU        0.344960    0.347564    0.462985     0.007504
AU1993   AU        0.383327    0.307827    0.460635     0.007504
AU1994   AU        0.383288    0.346771    0.502312     0.007504
AU1995   AU        0.420114    0.306587    0.499495     0.007504
AU1996   AU        0.421505    0.345608    0.461702     0.007504
AU1997   AU        0.459895    0.309851    0.460146     0.007504
AU1998   AU        0.460410    0.347959    0.500694     0.007504
AU1999   AU        0.501361    0.306129    0.499175     0.007504
AU2000   AU        0.497595    0.347191    0.458558     0.007504
AU2001   AU        0.536882    0.311764    0.460142     0.007504
AU2002   AU        0.537502    0.345628    0.499405     0.007504
AU2003   AU        0.574569    0.305229    0.503626     0.007504
AU2004   AU        0.577900    0.346575    0.463448     0.007504
AU2005   AU        0.614707    0.306271    0.460672     0.007504
AU2006   AU        0.615651    0.344982    0.503319     0.007504
AU2007   AU        0.654969    0.306609    0.499483     0.007504
AU2008   AU        0.655577    0.346405    0.464864     0.007504
AU2009   AU        0.693075    0.308430    0.462102     0.007504
AU2010   AU        0.692428    0.346980    0.499998     0.007504
AU2011   AU        0.732388    0.304837    0.501993     0.007504
AU2012   AU        0.732722    0.344657    0.463015     0.007504
AU2013   AU        0.770931    0.304822    0.462942     0.007504
AU2014   AU        0.771425    0.343768    0.499625     0.007504
AU2015   AU        0.808530    0.302879    0.500009     0.007504
AU2016   AU        0.810987    0.343459    0.460346     0.007504
PD2017   PD        0.846166    0.304927    0.461938     0.007504
PD2018   PD        0.843722    0.342771    0.500972     0.007504
PD2019   PD        0.883730    0.304451    0.499645     0.007504
PD2020   PD        0.884060    0.340399    0.463198     0.007504
PD2021   PD        0.000966    0.388594    0.465939     0.007504
PD2022   PD        0.003725    0.427606    0.499722     0.007504
PD2023   PD        0.039778    0.389852    0.502111     0.007504
PD2024   PD        0.038942    0.425910    0.461867     0.007504
PD2025   PD        0.076298    0.388701    0.460591     0.007504
PD2026   PD        0.079710    0.429713    0.500660     0.007504
PD2027   PD        0.112461    0.387699    0.496978     0.007504
AU2028   AU        0.113518    0.425379    0.459394     0.007504
AU2029   AU        0.149675    0.385481    0.460586     0.007504
PD2030   PD        0.148856    0.425902    0.500287     0.007504
AU2031   AU        0.186800    0.386372    0.500811     0.007504
AU2032   AU        0.188372    0.424595    0.461447     0.007504
AU2033   AU        0.226620    0.389073    0.460386     0.007504
AU2034   AU        0.228804    0.425202    0.498722     0.007504
AU2035   AU        0.266590    0.386235    0.497816     0.007504
AU2036   AU        0.266621    0.426895    0.460859     0.007504
AU2037   AU        0.307267    0.386435    0.460200     0.007504
AU2038   AU        0.307341    0.423408    0.499471     0.007504
AU2039   AU        0.342642    0.383446    0.500310     0.007504
AU2040   AU        0.344818    0.424377    0.460125     0.007504
AU2041   AU        0.380993    0.384561    0.459553     0.007504
AU2042   AU        0.380658    0.421649    0.497721     0.007504
AU2043   AU        0.422234    0.385479    0.499159     0.007504
AU2044   AU        0.417862    0.423162    0.457829     0.007504
AU2045   AU        0.461240    0.383395    0.459566     0.007504
AU2046   AU        0.460151    0.423318    0.497429     0.007504
AU2047   AU        0.499442    0.385719    0.500509     0.007504
AU2048   AU        0.497766    0.420545    0.458951     0.007504
AU2049   AU        0.536552    0.385355    0.458796     0.007504
AU2050   AU        0.537542    0.424131    0.500331     0.007504
AU2051   AU        0.575593    0.384719    0.500265     0.007504
AU2052   AU        0.579247    0.420369    0.459635     0.007504
AU2053   AU        0.617415    0.382114    0.463455     0.007504
AU2054   AU        0.616277    0.421942    0.500956     0.007504
AU2055   AU        0.656402    0.384140    0.499786     0.007504
AU2056   AU        0.652679    0.422882    0.459908     0.007504
AU2057   AU        0.695129    0.383674    0.460526     0.007504
AU2058   AU        0.691272    0.421382    0.498482     0.007504
AU2059   AU        0.729834    0.384836    0.499953     0.007504
AU2060   AU        0.730401    0.422945    0.460234     0.007504
AU2061   AU        0.768478    0.382572    0.460045     0.007504
AU2062   AU        0.771156    0.419168    0.499970     0.007504
AU2063   AU        0.808635    0.386042    0.499759     0.007504
AU2064   AU        0.807958    0.420292    0.460005     0.007504
PD2065   PD        0.846551    0.383923    0.461041     0.007504
PD2066   PD        0.848189    0.421305    0.498909     0.007504
PD2067   PD        0.882732    0.380613    0.499156     0.007504
PD2068   PD        0.882577    0.420334    0.459275     0.007504
PD2069   PD        0.917511    0.382684    0.462500     0.007504
PD2070   PD        0.919409    0.418317    0.498429     0.007504
PD2071   PD        0.001309    0.464937    0.461683     0.007504
PD2072   PD        0.002219    0.503749    0.500661     0.007504
PD2073   PD        0.039666    0.467161    0.500031     0.007504
AU2074   AU        0.039316    0.504655    0.463426     0.007504
AU2075   AU        0.075685    0.465559    0.460801     0.007504
AU2076   AU        0.077171    0.502733    0.501515     0.007504
PD2077   PD        0.114323    0.464930    0.497634     0.007504
PD2078   PD        0.113187    0.505343    0.458996     0.007504
AU2079   AU        0.151464    0.463485    0.460337     0.007504
AU2080   AU        0.152826    0.501675    0.503100     0.007504
AU2081   AU        0.190398    0.464506    0.499582     0.007504
AU2082   AU        0.185608    0.502111    0.462257     0.007504
AU2083   AU        0.226453    0.464620    0.458795     0.007504
AU2084   AU        0.229121    0.501257    0.499046     0.007504
AU2085   AU        0.267115    0.463907    0.499133     0.007504
AU2086   AU        0.267275    0.502056    0.458986     0.007504
AU2087   AU        0.306099    0.461218    0.460734     0.007504
AU2088   AU        0.303020    0.504550    0.500267     0.007504
AU2089   AU        0.345755    0.463938    0.498194     0.007504
AU2090   AU        0.344690    0.504218    0.460716     0.007504
AU2091   AU        0.384623    0.462868    0.460393     0.007504
AU2092   AU        0.382281    0.503085    0.497758     0.007504
AU2093   AU        0.421218    0.460565    0.498819     0.007504
AU2094   AU        0.421468    0.502934    0.462046     0.007504
PD2095   PD        0.457460    0.461572    0.458341     0.007504
AU2096   AU        0.461042    0.502022    0.499366     0.007504
AU2097   AU        0.496868    0.461270    0.497140     0.007504
AU2098   AU        0.498692    0.499796    0.459998     0.007504
AU2099   AU        0.536588    0.459434    0.460929     0.007504
AU2100   AU        0.538724    0.499153    0.497998     0.007504
AU2101   AU        0.576149    0.461774    0.499693     0.007504
AU2102   AU        0.577271    0.498677    0.460371     0.007504
AU2103   AU        0.616096    0.462837    0.461418     0.007504
AU2104   AU        0.612120    0.501231    0.499476     0.007504
AU2105   AU        0.652116    0.462707    0.498099     0.007504
AU2106   AU        0.654599    0.501795    0.459434     0.007504
AU2107   AU        0.692686    0.461702    0.460247     0.007504
AU2108   AU        0.692181    0.498153    0.500314     0.007504
AU2109   AU        0.732326    0.459063    0.499186     0.007504
AU2110   AU        0.730329    0.497920    0.462434     0.007504
AU2111   AU        0.772370    0.458578    0.463366     0.007504
PD2112   PD        0.770387    0.497727    0.499837     0.007504
PD2113   PD        0.810095    0.460876    0.502056     0.007504
PD2114   PD        0.807385    0.499662    0.460274     0.007504
AU2115   AU        0.845760    0.457094    0.460665     0.007504
PD2116   PD        0.845461    0.497031    0.500476     0.007504
PD2117   PD        0.882662    0.459675    0.498115     0.007504
PD2118   PD        0.882388    0.495313    0.459731     0.007504
PD2119   PD        0.920148    0.456658    0.457741     0.007504
PD2120   PD        0.922121    0.494406    0.496769     0.007504
PD2121   PD        0.002710    0.540005    0.461597     0.007504
PD2122   PD        0.037319    0.545774    0.503510     0.007504
AU2123   AU        0.036856    0.583063    0.460344     0.007504
AU2124   AU        0.076224    0.542972    0.461364     0.007504
PD2125   PD        0.075335    0.583068    0.498662     0.007504
AU2126   AU        0.113167    0.543744    0.499304     0.007504
PD2127   PD        0.114881    0.579071    0.459675     0.007504
AU2128   AU        0.151208    0.541339    0.462760     0.007504
AU2129   AU        0.152217    0.581587    0.502499     0.007504
AU2130   AU        0.188515    0.542372    0.501153     0.007504
PD2131   PD        0.187298    0.580903    0.466841     0.007504
AU2132   AU        0.224766    0.540130    0.463037     0.007504
AU2133   AU        0.227662    0.582183    0.501000     0.007504
AU2134   AU        0.266891    0.542055    0.497896     0.007504
AU2135   AU        0.266998    0.579725    0.460815     0.007504
AU2136   AU        0.307674    0.541467    0.459436     0.007504
AU2137   AU        0.306078    0.580651    0.501301     0.007504
AU2138   AU        0.344951    0.541865    0.503701     0.007504
AU2139   AU        0.344325    0.579030    0.461742     0.007504
AU2140   AU        0.381179    0.541621    0.458627     0.007504
AU2141   AU        0.382148    0.580329    0.498562     0.007504
AU2142   AU        0.421801    0.542273    0.499204     0.007504
AU2143   AU        0.424699    0.578641    0.460354     0.007504
AU2144   AU        0.462178    0.539017    0.459910     0.007504
AU2145   AU        0.460634    0.579766    0.498184     0.007504
AU2146   AU        0.499137    0.541874    0.498612     0.007504
AU2147   AU        0.498233    0.578299    0.457314     0.007504
AU2148   AU        0.538481    0.535127    0.460862     0.007504
AU2149   AU        0.537646    0.580442    0.500637     0.007504
AU2150   AU        0.574955    0.537997    0.497361     0.007504
AU2151   AU        0.577509    0.578324    0.459630     0.007504
AU2152   AU        0.615749    0.539414    0.460084     0.007504
AU2153   AU        0.616647    0.576838    0.499786     0.007504
AU2154   AU        0.653730    0.538136    0.499194     0.007504
AU2155   AU        0.655904    0.575803    0.461370     0.007504
AU2156   AU        0.695007    0.539907    0.459853     0.007504
AU2157   AU        0.692944    0.574150    0.498052     0.007504
AU2158   AU        0.731858    0.536046    0.498060     0.007504
AU2159   AU        0.732059    0.578941    0.460237     0.007504
AU2160   AU        0.769918    0.537039    0.460867     0.007504
AU2161   AU        0.768999    0.573622    0.498330     0.007504
PD2162   PD        0.810396    0.534178    0.499127     0.007504
PD2163   PD        0.811753    0.575198    0.459124     0.007504
PD2164   PD        0.847301    0.534552    0.460030     0.007504
PD2165   PD        0.850016    0.573111    0.497366     0.007504
PD2166   PD        0.884754    0.533511    0.495996     0.007504
AU2167   AU        0.885671    0.574185    0.458901     0.007504
PD2168   PD        0.919882    0.532348    0.457157     0.007504
PD2169   PD        0.045137    0.621908    0.502754     0.007504
PD2170   PD        0.042766    0.658572    0.464858     0.007504
PD2171   PD        0.077354    0.620542    0.461057     0.007504
PD2172   PD        0.080731    0.659876    0.502469     0.007504
AU2173   AU        0.112987    0.619693    0.500874     0.007504
PD2174   PD        0.114370    0.657742    0.460758     0.007504
AU2175   AU        0.151733    0.619233    0.462474     0.007504
AU2176   AU        0.153113    0.658563    0.500327     0.007504
PD2177   PD        0.188746    0.619287    0.500979     0.007504
AU2178   AU        0.190647    0.659493    0.461624     0.007504
AU2179   AU        0.226691    0.619064    0.462458     0.007504
AU2180   AU        0.230373    0.659225    0.499345     0.007504
AU2181   AU        0.269222    0.619081    0.501233     0.007504
AU2182   AU        0.266567    0.658252    0.462041     0.007504
AU2183   AU        0.307227    0.617931    0.460885     0.007504
AU2184   AU        0.307451    0.656693    0.500154     0.007504
AU2185   AU        0.345926    0.618018    0.501856     0.007504
AU2186   AU        0.347237    0.656804    0.462150     0.007504
AU2187   AU        0.381787    0.618803    0.463567     0.007504
AU2188   AU        0.384598    0.654276    0.502728     0.007504
AU2189   AU        0.423587    0.618964    0.502910     0.007504
AU2190   AU        0.420736    0.655247    0.459529     0.007504
AU2191   AU        0.460236    0.619678    0.461751     0.007504
AU2192   AU        0.460867    0.655752    0.502468     0.007504
AU2193   AU        0.499913    0.616599    0.498300     0.007504
AU2194   AU        0.498552    0.656325    0.461537     0.007504
AU2195   AU        0.536563    0.616341    0.459616     0.007504
AU2196   AU        0.538647    0.653794    0.499305     0.007504
AU2197   AU        0.578175    0.616958    0.495303     0.007504
AU2198   AU        0.574340    0.654231    0.458164     0.007504
AU2199   AU        0.615671    0.616282    0.460382     0.007504
AU2200   AU        0.618543    0.654160    0.498793     0.007504
AU2201   AU        0.656868    0.612736    0.498672     0.007504
AU2202   AU        0.655539    0.650601    0.459346     0.007504
AU2203   AU        0.695533    0.615235    0.460181     0.007504
PD2204   PD        0.693771    0.654735    0.500708     0.007504
AU2205   AU        0.732130    0.613957    0.500992     0.007504
AU2206   AU        0.731852    0.653770    0.462290     0.007504
AU2207   AU        0.773992    0.613112    0.462334     0.007504
PD2208   PD        0.771087    0.650119    0.499336     0.007504
AU2209   AU        0.810883    0.612592    0.498628     0.007504
PD2210   PD        0.811232    0.651528    0.460125     0.007504
PD2211   PD        0.848078    0.613995    0.458290     0.007504
PD2212   PD        0.847708    0.652775    0.499516     0.007504
PD2213   PD        0.883695    0.613407    0.494692     0.007504
PD2214   PD        0.882426    0.653522    0.458092     0.007504
PD2215   PD        0.080726    0.698632    0.461506     0.007504
PD2216   PD        0.079980    0.737207    0.496698     0.007504
PD2217   PD        0.115504    0.698563    0.500229     0.007504
PD2218   PD        0.118575    0.733706    0.462149     0.007504
AU2219   AU        0.153830    0.698316    0.462456     0.007504
PD2220   PD        0.155750    0.733474    0.502410     0.007504
AU2221   AU        0.190505    0.696678    0.503217     0.007504
AU2222   AU        0.193013    0.732881    0.461584     0.007504
AU2223   AU        0.229871    0.697620    0.462558     0.007504
PD2224   PD        0.231309    0.734353    0.499807     0.007504
AU2225   AU        0.269140    0.696080    0.499083     0.007504
AU2226   AU        0.269982    0.733019    0.461250     0.007504
AU2227   AU        0.306570    0.695350    0.462201     0.007504
AU2228   AU        0.307041    0.736702    0.500227     0.007504
AU2229   AU        0.345399    0.698773    0.500434     0.007504
AU2230   AU        0.344929    0.736537    0.461443     0.007504
AU2231   AU        0.386124    0.696145    0.463991     0.007504
AU2232   AU        0.386122    0.734406    0.499505     0.007504
AU2233   AU        0.422043    0.695132    0.500062     0.007504
AU2234   AU        0.423540    0.738205    0.459830     0.007504
AU2235   AU        0.459883    0.693511    0.463038     0.007504
AU2236   AU        0.462360    0.733238    0.498831     0.007504
AU2237   AU        0.500254    0.694090    0.500188     0.007504
AU2238   AU        0.500721    0.736244    0.462424     0.007504
AU2239   AU        0.539561    0.696030    0.459499     0.007504
AU2240   AU        0.540284    0.733741    0.499554     0.007504
PD2241   PD        0.579450    0.692354    0.495866     0.007504
AU2242   AU        0.580307    0.732131    0.462764     0.007504
AU2243   AU        0.616770    0.691730    0.458091     0.007504
AU2244   AU        0.617421    0.730931    0.499200     0.007504
AU2245   AU        0.659095    0.690712    0.498458     0.007504
AU2246   AU        0.655569    0.730387    0.463473     0.007504
AU2247   AU        0.694017    0.692260    0.460742     0.007504
PD2248   PD        0.693200    0.730485    0.500786     0.007504
AU2249   AU        0.730005    0.694125    0.498883     0.007504
PD2250   PD        0.732634    0.730412    0.459841     0.007504
PD2251   PD        0.772215    0.688244    0.461480     0.007504
PD2252   PD        0.769671    0.727729    0.500453     0.007504
AU2253   AU        0.809577    0.690208    0.498924     0.007504
PD2254   PD        0.809164    0.731708    0.461924     0.007504
PD2255   PD        0.846520    0.694608    0.462275     0.007504
PD2256   PD        0.845543    0.728804    0.501839     0.007504
PD2257   PD        0.118504    0.769723    0.500119     0.007504
PD2258   PD        0.155687    0.770467    0.460924     0.007504
PD2259   PD        0.154985    0.808989    0.500659     0.007504
PD2260   PD        0.192088    0.772569    0.500883     0.007504
AU2261   AU        0.194471    0.812386    0.462693     0.007504
PD2262   PD        0.228620    0.772545    0.464191     0.007504
PD2263   PD        0.233093    0.810468    0.501491     0.007504
PD2264   PD        0.269684    0.771882    0.501653     0.007504
PD2265   PD        0.269304    0.810931    0.461559     0.007504
AU2266   AU        0.308102    0.773487    0.460843     0.007504
PD2267   PD        0.309298    0.805794    0.502649     0.007504
AU2268   AU        0.347010    0.771890    0.503226     0.007504
AU2269   AU        0.344766    0.811171    0.460986     0.007504
PD2270   PD        0.383543    0.773064    0.462636     0.007504
PD2271   PD        0.383833    0.808172    0.503462     0.007504
AU2272   AU        0.421718    0.771047    0.501307     0.007504
PD2273   PD        0.423542    0.809375    0.465168     0.007504
AU2274   AU        0.463046    0.775196    0.462544     0.007504
PD2275   PD        0.463306    0.810209    0.501987     0.007504
AU2276   AU        0.503043    0.774153    0.500628     0.007504
PD2277   PD        0.502685    0.811272    0.463581     0.007504
AU2278   AU        0.542048    0.774612    0.463521     0.007504
PD2279   PD        0.540985    0.810997    0.501315     0.007504
PD2280   PD        0.578726    0.772295    0.500676     0.007504
PD2281   PD        0.580089    0.808578    0.462038     0.007504
PD2282   PD        0.614985    0.770640    0.460739     0.007504
AU2283   AU        0.619351    0.807437    0.499718     0.007504
AU2284   AU        0.655225    0.768908    0.500547     0.007504
PD2285   PD        0.654213    0.804421    0.461444     0.007504
AU2286   AU        0.692661    0.766126    0.461586     0.007504
PD2287   PD        0.692976    0.805445    0.499674     0.007504
PD2288   PD        0.732759    0.767638    0.500543     0.007504
PD2289   PD        0.731838    0.802931    0.463349     0.007504
PD2290   PD        0.770175    0.767924    0.463610     0.007504
PD2291   PD        0.772884    0.804728    0.501997     0.007504
PD2292   PD        0.807543    0.764770    0.498852     0.007504
PD2293   PD        0.196138    0.847404    0.502779     0.007504
PD2294   PD        0.235397    0.847463    0.464010     0.007504
PD2295   PD        0.272852    0.844239    0.504199     0.007504
PD2296   PD        0.271105    0.885812    0.462078     0.007504
PD2297   PD        0.304507    0.847888    0.463173     0.007504
PD2298   PD        0.309654    0.883806    0.502520     0.007504
AU2299   AU        0.344759    0.843138    0.503892     0.007504
PD2300   PD        0.347299    0.885107    0.466515     0.007504
AU2301   AU        0.384038    0.846580    0.462245     0.007504
PD2302   PD        0.384454    0.883579    0.501998     0.007504
PD2303   PD        0.423354    0.845727    0.502408     0.007504
PD2304   PD        0.424148    0.881569    0.464362     0.007504
PD2305   PD        0.458043    0.844843    0.461802     0.007504
PD2306   PD        0.462204    0.879046    0.500113     0.007504
PD2307   PD        0.502175    0.845516    0.503696     0.007504
PD2308   PD        0.498966    0.878877    0.463635     0.007504
AU2309   AU        0.542908    0.845069    0.462149     0.007504
PD2310   PD        0.539879    0.878859    0.501510     0.007504
PD2311   PD        0.580735    0.844163    0.499225     0.007504
PD2312   PD        0.577921    0.883913    0.463397     0.007504
PD2313   PD        0.617994    0.845553    0.462473     0.007504
PD2314   PD        0.620713    0.885835    0.497066     0.007504
PD2315   PD        0.656742    0.843938    0.499945     0.007504
PD2316   PD        0.656755    0.878791    0.461089     0.007504
PD2317   PD        0.694393    0.841358    0.462894     0.007504
PD2318   PD        0.731861    0.841758    0.498428     0.007504
PD2319   PD        0.388415    0.918648    0.465168     0.007504
PD2320   PD        0.424493    0.916486    0.503523     0.007504
PD2321   PD        0.461283    0.916957    0.464240     0.007504
PD2322   PD        0.497829    0.915163    0.502696     0.007504
PD2323   PD        0.536896    0.918175    0.462919     0.007504
PD2324   PD        0.267571    0.045618    0.533393     0.007504
PD2325   PD        0.303772    0.043931    0.575253     0.007504
PD2326   PD        0.342247    0.041451    0.535077     0.007504
PD2327   PD        0.380743    0.043349    0.576207     0.007504
PD2328   PD        0.419836    0.040691    0.536586     0.007504
PD2329   PD        0.461675    0.006689    0.535647     0.007504
PD2330   PD        0.457828    0.041644    0.576346     0.007504
PD2331   PD        0.496000    0.041352    0.538505     0.007504
PD2332   PD        0.533562    0.041452    0.574741     0.007504
PD2333   PD        0.574591    0.040898    0.539757     0.007504
PD2334   PD        0.611807    0.042055    0.575170     0.007504
PD2335   PD        0.650390    0.042053    0.537576     0.007504
PD2336   PD        0.190917    0.120366    0.536656     0.007504
PD2337   PD        0.230074    0.082679    0.534653     0.007504
PD2338   PD        0.228028    0.117528    0.573264     0.007504
PD2339   PD        0.265791    0.083118    0.574035     0.007504
PD2340   PD        0.267962    0.118549    0.534453     0.007504
PD2341   PD        0.305943    0.081105    0.535281     0.007504
PD2342   PD        0.303406    0.122339    0.574321     0.007504
PD2343   PD        0.342624    0.084113    0.575789     0.007504
PD2344   PD        0.342973    0.118168    0.535593     0.007504
AU2345   AU        0.382416    0.080169    0.535602     0.007504
PD2346   PD        0.380490    0.116134    0.575535     0.007504
PD2347   PD        0.421512    0.079945    0.578612     0.007504
AU2348   AU        0.421417    0.115979    0.536319     0.007504
PD2349   PD        0.457663    0.078438    0.536306     0.007504
AU2350   AU        0.460503    0.117541    0.577414     0.007504
AU2351   AU        0.499861    0.079720    0.575295     0.007504
PD2352   PD        0.496095    0.114582    0.534778     0.007504
PD2353   PD        0.537196    0.079691    0.535395     0.007504
PD2354   PD        0.537093    0.116290    0.574064     0.007504
PD2355   PD        0.572455    0.079851    0.576260     0.007504
AU2356   AU        0.574156    0.114359    0.537188     0.007504
PD2357   PD        0.613169    0.079088    0.537229     0.007504
AU2358   AU        0.610353    0.114862    0.578182     0.007504
PD2359   PD        0.650459    0.078110    0.576066     0.007504
PD2360   PD        0.651623    0.114978    0.536585     0.007504
PD2361   PD        0.688664    0.080450    0.538010     0.007504
PD2362   PD        0.688782    0.115761    0.576986     0.007504
PD2363   PD        0.729516    0.114680    0.539263     0.007504
PD2364   PD        0.113637    0.196299    0.538271     0.007504
PD2365   PD        0.151093    0.157940    0.538046     0.007504
PD2366   PD        0.150470    0.196523    0.574983     0.007504
PD2367   PD        0.191108    0.158297    0.574274     0.007504
AU2368   AU        0.189065    0.193536    0.534769     0.007504
PD2369   PD        0.228823    0.156691    0.535794     0.007504
PD2370   PD        0.230360    0.195025    0.575302     0.007504
PD2371   PD        0.264084    0.156208    0.572876     0.007504
AU2372   AU        0.267377    0.195123    0.534445     0.007504
AU2373   AU        0.305867    0.157071    0.535185     0.007504
PD2374   PD        0.302811    0.194327    0.577850     0.007504
AU2375   AU        0.343784    0.159106    0.575396     0.007504
AU2376   AU        0.344294    0.194203    0.535740     0.007504
AU2377   AU        0.381126    0.155602    0.538318     0.007504
AU2378   AU        0.382773    0.193731    0.578822     0.007504
AU2379   AU        0.419545    0.153060    0.580036     0.007504
AU2380   AU        0.420102    0.191377    0.538577     0.007504
AU2381   AU        0.457162    0.153343    0.535072     0.007504
AU2382   AU        0.456832    0.190276    0.577939     0.007504
AU2383   AU        0.500038    0.151106    0.575899     0.007504
AU2384   AU        0.498691    0.190305    0.539154     0.007504
AU2385   AU        0.538125    0.153666    0.538020     0.007504
PD2386   PD        0.536284    0.191429    0.576824     0.007504
PD2387   PD        0.573892    0.154375    0.576402     0.007504
AU2388   AU        0.574910    0.191684    0.535397     0.007504
AU2389   AU        0.613642    0.151620    0.537910     0.007504
AU2390   AU        0.615082    0.191997    0.573920     0.007504
PD2391   PD        0.652071    0.152187    0.575642     0.007504
PD2392   PD        0.654402    0.190773    0.536907     0.007504
AU2393   AU        0.690160    0.152830    0.538467     0.007504
AU2394   AU        0.691985    0.191029    0.578522     0.007504
PD2395   PD        0.725302    0.152879    0.576431     0.007504
AU2396   AU        0.729614    0.191337    0.536709     0.007504
PD2397   PD        0.763744    0.152647    0.538502     0.007504
PD2398   PD        0.766120    0.188402    0.575934     0.007504
PD2399   PD        0.807100    0.190249    0.539933     0.007504
PD2400   PD        0.038616    0.276342    0.538842     0.007504
PD2401   PD        0.074013    0.234794    0.535446     0.007504
PD2402   PD        0.075153    0.273656    0.574297     0.007504
PD2403   PD        0.113878    0.237501    0.574757     0.007504
PD2404   PD        0.112343    0.272549    0.534033     0.007504
AU2405   AU        0.150920    0.232328    0.535818     0.007504
AU2406   AU        0.150844    0.271727    0.578076     0.007504
AU2407   AU        0.189882    0.236167    0.573641     0.007504
AU2408   AU        0.189255    0.272461    0.533414     0.007504
PD2409   PD        0.226285    0.229850    0.534145     0.007504
AU2410   AU        0.227113    0.273221    0.578040     0.007504
AU2411   AU        0.265992    0.233035    0.572430     0.007504
AU2412   AU        0.263921    0.270761    0.536608     0.007504
AU2413   AU        0.305912    0.232754    0.537206     0.007504
AU2414   AU        0.305514    0.270593    0.576489     0.007504
AU2415   AU        0.342749    0.230768    0.577556     0.007504
AU2416   AU        0.344950    0.269613    0.539631     0.007504
AU2417   AU        0.384864    0.233324    0.540541     0.007504
AU2418   AU        0.382331    0.267946    0.579484     0.007504
AU2419   AU        0.419477    0.229966    0.579494     0.007504
AU2420   AU        0.420711    0.270272    0.536518     0.007504
AU2421   AU        0.457163    0.229853    0.537068     0.007504
AU2422   AU        0.459363    0.268123    0.576861     0.007504
AU2423   AU        0.497870    0.229149    0.575584     0.007504
AU2424   AU        0.497998    0.267202    0.539926     0.007504
AU2425   AU        0.537905    0.228273    0.538703     0.007504
AU2426   AU        0.537286    0.267894    0.579786     0.007504
AU2427   AU        0.575762    0.230824    0.575829     0.007504
AU2428   AU        0.574312    0.268471    0.537353     0.007504
AU2429   AU        0.613045    0.228071    0.535784     0.007504
AU2430   AU        0.613725    0.268053    0.576955     0.007504
AU2431   AU        0.651541    0.230140    0.575674     0.007504
AU2432   AU        0.654812    0.266569    0.537635     0.007504
AU2433   AU        0.693390    0.228352    0.539128     0.007504
PD2434   PD        0.692027    0.266549    0.575055     0.007504
AU2435   AU        0.731903    0.228524    0.576791     0.007504
PD2436   PD        0.731595    0.266842    0.537840     0.007504
AU2437   AU        0.772072    0.228080    0.539514     0.007504
AU2438   AU        0.770432    0.265886    0.574589     0.007504
PD2439   PD        0.809182    0.228926    0.578310     0.007504
PD2440   PD        0.806993    0.268541    0.537404     0.007504
PD2441   PD        0.843633    0.229711    0.537188     0.007504
PD2442   PD        0.842171    0.268447    0.575600     0.007504
PD2443   PD        0.881072    0.266341    0.536790     0.007504
PD2444   PD        0.040814    0.311671    0.578670     0.007504
PD2445   PD        0.036816    0.351826    0.537648     0.007504
PD2446   PD        0.075078    0.312253    0.537996     0.007504
PD2447   PD        0.077435    0.349784    0.573873     0.007504
AU2448   AU        0.112962    0.309183    0.575802     0.007504
AU2449   AU        0.113267    0.349320    0.537967     0.007504
AU2450   AU        0.150145    0.310954    0.537524     0.007504
PD2451   PD        0.149189    0.348133    0.578333     0.007504
AU2452   AU        0.190963    0.312602    0.576760     0.007504
PD2453   PD        0.189099    0.348316    0.536548     0.007504
AU2454   AU        0.227154    0.311126    0.539883     0.007504
AU2455   AU        0.229589    0.350213    0.577742     0.007504
AU2456   AU        0.266531    0.309253    0.577979     0.007504
AU2457   AU        0.266424    0.346868    0.540373     0.007504
AU2458   AU        0.303028    0.309337    0.538448     0.007504
AU2459   AU        0.307087    0.345403    0.578715     0.007504
AU2460   AU        0.344072    0.307599    0.577207     0.007504
AU2461   AU        0.341906    0.347398    0.538384     0.007504
AU2462   AU        0.384245    0.307240    0.539008     0.007504
AU2463   AU        0.382691    0.347407    0.577017     0.007504
AU2464   AU        0.419286    0.307324    0.579026     0.007504
AU2465   AU        0.423076    0.348699    0.540608     0.007504
AU2466   AU        0.462318    0.309351    0.538837     0.007504
AU2467   AU        0.458357    0.346322    0.577809     0.007504
AU2468   AU        0.500611    0.307600    0.577577     0.007504
AU2469   AU        0.501547    0.344642    0.539414     0.007504
AU2470   AU        0.538062    0.303634    0.537287     0.007504
AU2471   AU        0.539483    0.345286    0.575179     0.007504
AU2472   AU        0.574962    0.304629    0.574505     0.007504
AU2473   AU        0.576995    0.345118    0.537853     0.007504
AU2474   AU        0.615808    0.305861    0.537775     0.007504
AU2475   AU        0.615798    0.344607    0.576216     0.007504
AU2476   AU        0.654408    0.303864    0.577513     0.007504
AU2477   AU        0.653081    0.346107    0.536315     0.007504
AU2478   AU        0.692866    0.306221    0.537364     0.007504
AU2479   AU        0.694844    0.343934    0.576490     0.007504
AU2480   AU        0.732140    0.306324    0.573661     0.007504
AU2481   AU        0.733785    0.342171    0.535870     0.007504
PD2482   PD        0.771126    0.303984    0.537196     0.007504
AU2483   AU        0.770622    0.345386    0.573501     0.007504
PD2484   PD        0.806770    0.306258    0.573499     0.007504
AU2485   AU        0.807531    0.344674    0.537734     0.007504
PD2486   PD        0.845375    0.305442    0.537301     0.007504
PD2487   PD        0.844017    0.343920    0.575759     0.007504
AU2488   AU        0.883923    0.304443    0.575371     0.007504
PD2489   PD        0.880863    0.341926    0.535629     0.007504
PD2490   PD        0.042352    0.388709    0.579142     0.007504
PD2491   PD        0.040312    0.429109    0.538752     0.007504
PD2492   PD        0.077812    0.390970    0.538462     0.007504
PD2493   PD        0.074696    0.428398    0.577819     0.007504
AU2494   AU        0.111251    0.389136    0.578543     0.007504
PD2495   PD        0.114002    0.425576    0.537355     0.007504
AU2496   AU        0.148753    0.388852    0.539549     0.007504
AU2497   AU        0.149371    0.426984    0.576837     0.007504
AU2498   AU        0.188554    0.384618    0.577046     0.007504
AU2499   AU        0.189597    0.425892    0.539329     0.007504
AU2500   AU        0.227758    0.389769    0.539292     0.007504
AU2501   AU        0.229212    0.425920    0.577133     0.007504
AU2502   AU        0.267518    0.385721    0.574763     0.007504
AU2503   AU        0.267757    0.424614    0.540600     0.007504
AU2504   AU        0.304915    0.386477    0.538931     0.007504
AU2505   AU        0.306434    0.425102    0.574815     0.007504
AU2506   AU        0.343666    0.388011    0.577104     0.007504
AU2507   AU        0.345984    0.422543    0.538042     0.007504
AU2508   AU        0.381323    0.386631    0.537265     0.007504
AU2509   AU        0.385050    0.425477    0.576589     0.007504
AU2510   AU        0.420442    0.387705    0.575455     0.007504
AU2511   AU        0.423798    0.424481    0.535629     0.007504
AU2512   AU        0.461662    0.385221    0.537656     0.007504
AU2513   AU        0.460720    0.421503    0.578842     0.007504
AU2514   AU        0.501737    0.383435    0.576283     0.007504
AU2515   AU        0.498156    0.425389    0.538348     0.007504
AU2516   AU        0.539422    0.385266    0.536631     0.007504
AU2517   AU        0.539505    0.421115    0.574716     0.007504
AU2518   AU        0.577074    0.385726    0.576980     0.007504
AU2519   AU        0.577638    0.422501    0.537942     0.007504
AU2520   AU        0.615892    0.384123    0.537861     0.007504
AU2521   AU        0.616530    0.423483    0.577203     0.007504
AU2522   AU        0.654631    0.385652    0.577055     0.007504
AU2523   AU        0.656834    0.424232    0.538778     0.007504
AU2524   AU        0.693820    0.380839    0.541232     0.007504
AU2525   AU        0.693932    0.420928    0.578758     0.007504
AU2526   AU        0.735467    0.383406    0.576899     0.007504
AU2527   AU        0.730278    0.422869    0.538805     0.007504
AU2528   AU        0.770627    0.385172    0.537562     0.007504
AU2529   AU        0.770154    0.423610    0.581186     0.007504
PD2530   PD        0.809293    0.384750    0.575293     0.007504
PD2531   PD        0.810116    0.422332    0.538159     0.007504
PD2532   PD        0.846900    0.383884    0.538684     0.007504
PD2533   PD        0.846850    0.422423    0.577161     0.007504
PD2534   PD        0.880585    0.379407    0.578140     0.007504
PD2535   PD        0.886197    0.417761    0.539822     0.007504
PD2536   PD        0.003888    0.464264    0.538561     0.007504
PD2537   PD        0.037951    0.465031    0.581072     0.007504
PD2538   PD        0.037453    0.505684    0.540462     0.007504
PD2539   PD        0.077678    0.463786    0.538063     0.007504
PD2540   PD        0.077311    0.502522    0.576020     0.007504
PD2541   PD        0.112952    0.467290    0.577930     0.007504
AU2542   AU        0.115636    0.502148    0.539035     0.007504
AU2543   AU        0.153084    0.464399    0.540005     0.007504
PD2544   PD        0.149865    0.501283    0.580105     0.007504
AU2545   AU        0.190864    0.462707    0.579365     0.007504
AU2546   AU        0.189756    0.500560    0.539836     0.007504
AU2547   AU        0.228709    0.464764    0.538013     0.007504
AU2548   AU        0.229128    0.501561    0.578146     0.007504
AU2549   AU        0.268198    0.463891    0.580845     0.007504
AU2550   AU        0.267827    0.501833    0.538215     0.007504
AU2551   AU        0.306289    0.462601    0.538038     0.007504
AU2552   AU        0.307798    0.501681    0.574371     0.007504
AU2553   AU        0.343852    0.463926    0.577635     0.007504
AU2554   AU        0.346245    0.503088    0.536030     0.007504
AU2555   AU        0.383928    0.462055    0.537404     0.007504
AU2556   AU        0.383301    0.501739    0.577225     0.007504
AU2557   AU        0.423445    0.462179    0.576696     0.007504
AU2558   AU        0.421195    0.500151    0.535520     0.007504
AU2559   AU        0.463328    0.462678    0.537592     0.007504
AU2560   AU        0.462381    0.501707    0.575555     0.007504
AU2561   AU        0.499960    0.463228    0.580999     0.007504
AU2562   AU        0.501133    0.501748    0.537707     0.007504
AU2563   AU        0.538376    0.461078    0.538500     0.007504
AU2564   AU        0.539138    0.500229    0.576754     0.007504
AU2565   AU        0.574592    0.461461    0.577115     0.007504
AU2566   AU        0.573989    0.502911    0.536911     0.007504
AU2567   AU        0.613537    0.461144    0.537445     0.007504
AU2568   AU        0.614782    0.501962    0.573336     0.007504
AU2569   AU        0.651755    0.462887    0.575879     0.007504
AU2570   AU        0.650392    0.499322    0.536770     0.007504
AU2571   AU        0.692475    0.461992    0.537256     0.007504
AU2572   AU        0.693004    0.498845    0.576452     0.007504
AU2573   AU        0.732044    0.458554    0.578144     0.007504
AU2574   AU        0.728865    0.498301    0.537756     0.007504
AU2575   AU        0.771400    0.460376    0.539297     0.007504
AU2576   AU        0.767666    0.500907    0.574378     0.007504
PD2577   PD        0.809587    0.458725    0.577349     0.007504
AU2578   AU        0.809745    0.499280    0.539442     0.007504
PD2579   PD        0.846886    0.459331    0.538296     0.007504
AU2580   AU        0.847939    0.500057    0.576267     0.007504
PD2581   PD        0.887019    0.457763    0.576789     0.007504
AU2582   AU        0.886184    0.496817    0.535886     0.007504
PD2583   PD        0.920124    0.455854    0.536509     0.007504
PD2584   PD        0.042288    0.542924    0.577041     0.007504
PD2585   PD        0.044038    0.583297    0.539093     0.007504
AU2586   AU        0.077750    0.541978    0.538258     0.007504
PD2587   PD        0.078925    0.581227    0.575727     0.007504
AU2588   AU        0.114549    0.539991    0.576204     0.007504
PD2589   PD        0.112597    0.580400    0.538049     0.007504
AU2590   AU        0.150459    0.539783    0.539766     0.007504
AU2591   AU        0.150080    0.580598    0.577613     0.007504
AU2592   AU        0.188021    0.540590    0.576371     0.007504
AU2593   AU        0.190679    0.580761    0.541063     0.007504
AU2594   AU        0.228936    0.544456    0.539565     0.007504
AU2595   AU        0.229793    0.580674    0.579954     0.007504
AU2596   AU        0.268086    0.540230    0.576176     0.007504
AU2597   AU        0.266301    0.581625    0.539624     0.007504
AU2598   AU        0.307174    0.543506    0.540087     0.007504
AU2599   AU        0.306103    0.580139    0.577792     0.007504
AU2600   AU        0.346194    0.541730    0.579040     0.007504
AU2601   AU        0.346713    0.581287    0.540898     0.007504
AU2602   AU        0.386242    0.542211    0.538584     0.007504
AU2603   AU        0.387605    0.577996    0.578768     0.007504
AU2604   AU        0.422531    0.537009    0.574972     0.007504
AU2605   AU        0.424462    0.579965    0.540924     0.007504
AU2606   AU        0.462970    0.540305    0.538027     0.007504
AU2607   AU        0.466558    0.576996    0.579277     0.007504
AU2608   AU        0.503498    0.539532    0.579559     0.007504
AU2609   AU        0.500773    0.576891    0.538774     0.007504
AU2610   AU        0.538846    0.540548    0.537221     0.007504
AU2611   AU        0.536752    0.581434    0.579381     0.007504
AU2612   AU        0.575497    0.540221    0.578477     0.007504
AU2613   AU        0.577422    0.579076    0.538232     0.007504
AU2614   AU        0.612561    0.541973    0.536676     0.007504
AU2615   AU        0.616760    0.580778    0.577428     0.007504
AU2616   AU        0.652312    0.539357    0.574286     0.007504
AU2617   AU        0.653578    0.578053    0.538125     0.007504
AU2618   AU        0.693126    0.538037    0.536501     0.007504
PD2619   PD        0.695338    0.573437    0.577839     0.007504
AU2620   AU        0.730828    0.537197    0.576489     0.007504
AU2621   AU        0.731765    0.573317    0.536985     0.007504
AU2622   AU        0.771202    0.534018    0.533930     0.007504
AU2623   AU        0.772292    0.575113    0.573145     0.007504
PD2624   PD        0.808638    0.536435    0.574023     0.007504
AU2625   AU        0.808376    0.573185    0.533873     0.007504
PD2626   PD        0.848780    0.536270    0.535940     0.007504
PD2627   PD        0.844857    0.573204    0.575134     0.007504
PD2628   PD        0.885380    0.536506    0.575773     0.007504
AU2629   AU        0.886459    0.572566    0.535605     0.007504
PD2630   PD        0.043058    0.620575    0.578639     0.007504
PD2631   PD        0.044611    0.658071    0.540775     0.007504
PD2632   PD        0.080710    0.619954    0.540617     0.007504
PD2633   PD        0.082326    0.656913    0.578740     0.007504
PD2634   PD        0.118069    0.620934    0.577680     0.007504
PD2635   PD        0.117906    0.658305    0.539696     0.007504
AU2636   AU        0.152739    0.617536    0.540031     0.007504
AU2637   AU        0.156933    0.659692    0.579213     0.007504
AU2638   AU        0.191214    0.619711    0.578858     0.007504
AU2639   AU        0.190922    0.657472    0.539904     0.007504
PD2640   PD        0.229511    0.620810    0.538457     0.007504
AU2641   AU        0.231120    0.656583    0.577922     0.007504
AU2642   AU        0.270059    0.619666    0.578704     0.007504
AU2643   AU        0.267337    0.659381    0.537704     0.007504
AU2644   AU        0.306109    0.616730    0.540645     0.007504
AU2645   AU        0.306301    0.658523    0.575622     0.007504
AU2646   AU        0.346049    0.619241    0.576198     0.007504
AU2647   AU        0.343058    0.657968    0.535851     0.007504
AU2648   AU        0.386587    0.616422    0.539829     0.007504
AU2649   AU        0.384795    0.653628    0.578306     0.007504
AU2650   AU        0.423771    0.615543    0.579400     0.007504
AU2651   AU        0.424269    0.656765    0.539957     0.007504
AU2652   AU        0.464443    0.615370    0.541775     0.007504
AU2653   AU        0.460439    0.656837    0.578544     0.007504
AU2654   AU        0.501783    0.620953    0.580379     0.007504
AU2655   AU        0.502156    0.654309    0.538470     0.007504
AU2656   AU        0.540726    0.617301    0.537567     0.007504
AU2657   AU        0.538471    0.656884    0.575118     0.007504
AU2658   AU        0.576937    0.617968    0.578670     0.007504
AU2659   AU        0.580003    0.656804    0.537746     0.007504
AU2660   AU        0.617039    0.615770    0.537696     0.007504
AU2661   AU        0.620152    0.654687    0.578759     0.007504
AU2662   AU        0.657126    0.614415    0.575951     0.007504
AU2663   AU        0.658278    0.653393    0.539611     0.007504
AU2664   AU        0.695531    0.615045    0.537777     0.007504
AU2665   AU        0.694488    0.653806    0.575167     0.007504
AU2666   AU        0.733619    0.613652    0.573609     0.007504
PD2667   PD        0.732944    0.652772    0.535815     0.007504
PD2668   PD        0.772032    0.612372    0.537030     0.007504
PD2669   PD        0.770362    0.648677    0.574644     0.007504
PD2670   PD        0.810240    0.612313    0.572858     0.007504
PD2671   PD        0.810048    0.650535    0.537980     0.007504
PD2672   PD        0.848607    0.610999    0.535609     0.007504
PD2673   PD        0.850339    0.649918    0.573587     0.007504
PD2674   PD        0.883698    0.609685    0.574244     0.007504
PD2675   PD        0.885913    0.647166    0.534808     0.007504
PD2676   PD        0.080747    0.695911    0.538853     0.007504
PD2677   PD        0.117456    0.696909    0.579329     0.007504
PD2678   PD        0.115975    0.733912    0.539943     0.007504
PD2679   PD        0.152465    0.695893    0.539554     0.007504
PD2680   PD        0.157452    0.736157    0.578235     0.007504
AU2681   AU        0.195231    0.697469    0.578412     0.007504
PD2682   PD        0.193835    0.736596    0.539837     0.007504
AU2683   AU        0.230468    0.697876    0.536603     0.007504
PD2684   PD        0.230963    0.739110    0.579267     0.007504
AU2685   AU        0.269394    0.695699    0.578451     0.007504
AU2686   AU        0.269308    0.734922    0.538103     0.007504
AU2687   AU        0.308301    0.699330    0.538317     0.007504
AU2688   AU        0.307210    0.734408    0.580632     0.007504
AU2689   AU        0.345865    0.695573    0.578086     0.007504
AU2690   AU        0.349017    0.733356    0.541115     0.007504
AU2691   AU        0.382699    0.692754    0.538471     0.007504
AU2692   AU        0.383817    0.734166    0.579397     0.007504
AU2693   AU        0.421742    0.695737    0.577265     0.007504
AU2694   AU        0.422413    0.730971    0.540179     0.007504
AU2695   AU        0.462020    0.694978    0.539139     0.007504
AU2696   AU        0.462283    0.733394    0.578501     0.007504
AU2697   AU        0.499462    0.694081    0.576927     0.007504
AU2698   AU        0.501666    0.732803    0.537817     0.007504
AU2699   AU        0.540600    0.694439    0.539340     0.007504
AU2700   AU        0.539076    0.732633    0.578871     0.007504
AU2701   AU        0.578143    0.690575    0.578876     0.007504
AU2702   AU        0.576873    0.728149    0.541490     0.007504
AU2703   AU        0.619402    0.693094    0.535461     0.007504
AU2704   AU        0.618520    0.731341    0.578375     0.007504
AU2705   AU        0.658801    0.693291    0.575798     0.007504
AU2706   AU        0.657404    0.727492    0.536638     0.007504
PD2707   PD        0.695622    0.689302    0.538353     0.007504
AU2708   AU        0.696782    0.729763    0.579090     0.007504
PD2709   PD        0.734607    0.689859    0.574885     0.007504
PD2710   PD        0.733106    0.729237    0.539003     0.007504
PD2711   PD        0.769967    0.688380    0.536898     0.007504
PD2712   PD        0.771191    0.727456    0.576805     0.007504
PD2713   PD        0.809933    0.687811    0.574693     0.007504
PD2714   PD        0.806984    0.724869    0.538432     0.007504
PD2715   PD        0.845520    0.688627    0.536795     0.007504
PD2716   PD        0.155529    0.770897    0.540096     0.007504
PD2717   PD        0.193217    0.770926    0.580040     0.007504
PD2718   PD        0.196469    0.810213    0.541730     0.007504
PD2719   PD        0.232162    0.774444    0.540781     0.007504
PD2720   PD        0.233201    0.808792    0.581037     0.007504
PD2721   PD        0.269598    0.771026    0.579118     0.007504
PD2722   PD        0.269378    0.806533    0.542467     0.007504
PD2723   PD        0.307964    0.771343    0.540848     0.007504
PD2724   PD        0.305286    0.807471    0.577776     0.007504
PD2725   PD        0.346170    0.772664    0.580535     0.007504
AU2726   AU        0.346587    0.807040    0.542457     0.007504
AU2727   AU        0.385845    0.773004    0.541552     0.007504
PD2728   PD        0.385959    0.807652    0.581513     0.007504
PD2729   PD        0.420673    0.768704    0.577566     0.007504
AU2730   AU        0.423215    0.811290    0.539667     0.007504
AU2731   AU        0.462143    0.772271    0.538790     0.007504
AU2732   AU        0.464316    0.807351    0.578353     0.007504
PD2733   PD        0.501523    0.768478    0.574762     0.007504
PD2734   PD        0.502999    0.809892    0.540209     0.007504
AU2735   AU        0.540857    0.769286    0.536243     0.007504
AU2736   AU        0.541294    0.806162    0.579615     0.007504
AU2737   AU        0.579377    0.767726    0.579348     0.007504
AU2738   AU        0.581686    0.805511    0.538508     0.007504
AU2739   AU        0.615612    0.764986    0.540031     0.007504
PD2740   PD        0.617995    0.805864    0.577998     0.007504
PD2741   PD        0.657664    0.766175    0.576710     0.007504
PD2742   PD        0.655968    0.804602    0.540348     0.007504
AU2743   AU        0.694158    0.766803    0.538484     0.007504
AU2744   AU        0.694540    0.804072    0.580640     0.007504
PD2745   PD        0.734252    0.766132    0.576719     0.007504
PD2746   PD        0.732608    0.803555    0.538050     0.007504
PD2747   PD        0.772398    0.763406    0.538185     0.007504
PD2748   PD        0.233321    0.846084    0.540685     0.007504
PD2749   PD        0.267823    0.846254    0.578764     0.007504
PD2750   PD        0.271391    0.883984    0.540828     0.007504
PD2751   PD        0.306818    0.845342    0.541835     0.007504
PD2752   PD        0.311673    0.882200    0.578701     0.007504
PD2753   PD        0.347711    0.845520    0.578332     0.007504
PD2754   PD        0.346823    0.882638    0.540111     0.007504
PD2755   PD        0.382473    0.845249    0.542880     0.007504
PD2756   PD        0.384181    0.880441    0.580510     0.007504
PD2757   PD        0.423245    0.846211    0.578058     0.007504
PD2758   PD        0.421049    0.881013    0.542110     0.007504
AU2759   AU        0.465680    0.844937    0.541284     0.007504
PD2760   PD        0.463360    0.880412    0.580083     0.007504
PD2761   PD        0.502489    0.844546    0.579132     0.007504
PD2762   PD        0.502267    0.881144    0.541650     0.007504
AU2763   AU        0.540562    0.845610    0.540359     0.007504
PD2764   PD        0.538612    0.882225    0.580428     0.007504
PD2765   PD        0.578957    0.846615    0.577159     0.007504
PD2766   PD        0.581661    0.883872    0.534076     0.007504
AU2767   AU        0.617349    0.843198    0.536924     0.007504
PD2768   PD        0.618031    0.879452    0.579026     0.007504
PD2769   PD        0.655700    0.843339    0.576415     0.007504
PD2770   PD        0.655736    0.878872    0.538955     0.007504
PD2771   PD        0.694548    0.840551    0.540327     0.007504
PD2772   PD        0.461974    0.913655    0.539666     0.007504
PD2773   PD        0.341833    0.047423    0.612295     0.007504
AU2774   AU        0.379622    0.040011    0.649605     0.007504
PD2775   PD        0.421516    0.043271    0.614353     0.007504
PD2776   PD        0.454679    0.043879    0.653054     0.007504
PD2777   PD        0.494130    0.040414    0.616351     0.007504
PD2778   PD        0.537480    0.041241    0.653669     0.007504
PD2779   PD        0.574448    0.041151    0.615612     0.007504
PD2780   PD        0.188815    0.121823    0.611480     0.007504
PD2781   PD        0.227354    0.121020    0.653144     0.007504
PD2782   PD        0.264740    0.085428    0.650317     0.007504
PD2783   PD        0.265338    0.121061    0.612201     0.007504
PD2784   PD        0.303678    0.085485    0.611954     0.007504
PD2785   PD        0.304444    0.119652    0.653309     0.007504
PD2786   PD        0.340850    0.080657    0.652619     0.007504
AU2787   AU        0.343216    0.120972    0.615072     0.007504
PD2788   PD        0.378972    0.081256    0.614720     0.007504
PD2789   PD        0.380763    0.118372    0.653657     0.007504
PD2790   PD        0.415632    0.081899    0.650538     0.007504
PD2791   PD        0.418923    0.116463    0.614889     0.007504
PD2792   PD        0.458706    0.081010    0.615198     0.007504
PD2793   PD        0.458030    0.115633    0.651724     0.007504
PD2794   PD        0.496650    0.079494    0.654989     0.007504
AU2795   AU        0.500428    0.115451    0.616817     0.007504
PD2796   PD        0.535169    0.077184    0.615624     0.007504
PD2797   PD        0.536129    0.118049    0.653803     0.007504
PD2798   PD        0.573869    0.080405    0.651856     0.007504
AU2799   AU        0.572129    0.117588    0.614797     0.007504
PD2800   PD        0.612378    0.078075    0.613216     0.007504
PD2801   PD        0.611335    0.116207    0.650553     0.007504
PD2802   PD        0.650798    0.077409    0.649857     0.007504
PD2803   PD        0.649497    0.115240    0.614841     0.007504
PD2804   PD        0.689188    0.117638    0.652651     0.007504
PD2805   PD        0.725968    0.116108    0.614177     0.007504
PD2806   PD        0.113674    0.198696    0.611709     0.007504
PD2807   PD        0.152913    0.158784    0.611245     0.007504
PD2808   PD        0.152528    0.196634    0.650419     0.007504
PD2809   PD        0.192071    0.159426    0.653639     0.007504
AU2810   AU        0.190181    0.196121    0.611999     0.007504
PD2811   PD        0.229131    0.159316    0.613848     0.007504
PD2812   PD        0.229951    0.195890    0.653823     0.007504
PD2813   PD        0.267037    0.154424    0.650023     0.007504
PD2814   PD        0.267497    0.194374    0.615456     0.007504
AU2815   AU        0.304693    0.156610    0.614596     0.007504
PD2816   PD        0.304456    0.194355    0.652998     0.007504
PD2817   PD        0.342343    0.155492    0.655011     0.007504
AU2818   AU        0.342786    0.193232    0.617537     0.007504
PD2819   PD        0.381691    0.156555    0.616858     0.007504
PD2820   PD        0.381864    0.195615    0.657054     0.007504
AU2821   AU        0.421278    0.156401    0.656310     0.007504
AU2822   AU        0.421000    0.191095    0.615771     0.007504
PD2823   PD        0.459351    0.150826    0.614932     0.007504
AU2824   AU        0.458048    0.191596    0.653949     0.007504
PD2825   PD        0.496247    0.153575    0.654817     0.007504
AU2826   AU        0.500187    0.189186    0.616853     0.007504
PD2827   PD        0.538611    0.154262    0.612730     0.007504
AU2828   AU        0.536977    0.191387    0.653572     0.007504
AU2829   AU        0.575376    0.154569    0.652266     0.007504
AU2830   AU        0.577193    0.192581    0.614469     0.007504
AU2831   AU        0.613664    0.154533    0.613013     0.007504
PD2832   PD        0.613706    0.190963    0.651413     0.007504
PD2833   PD        0.650474    0.154031    0.651706     0.007504
AU2834   AU        0.653806    0.190128    0.614140     0.007504
PD2835   PD        0.687795    0.153354    0.615636     0.007504
PD2836   PD        0.689378    0.191451    0.652203     0.007504
PD2837   PD        0.724786    0.156740    0.651596     0.007504
PD2838   PD        0.729203    0.190806    0.613056     0.007504
PD2839   PD        0.764043    0.153686    0.613570     0.007504
PD2840   PD        0.765876    0.191470    0.650606     0.007504
PD2841   PD        0.805509    0.189380    0.613068     0.007504
PD2842   PD        0.077601    0.274201    0.657528     0.007504
PD2843   PD        0.115793    0.232025    0.657349     0.007504
AU2844   AU        0.111159    0.272689    0.615003     0.007504
PD2845   PD        0.151585    0.235422    0.615003     0.007504
PD2846   PD        0.151327    0.272630    0.653973     0.007504
PD2847   PD        0.190110    0.233658    0.651872     0.007504
AU2848   AU        0.190921    0.273871    0.613719     0.007504
AU2849   AU        0.231223    0.231726    0.613963     0.007504
AU2850   AU        0.229355    0.270790    0.653493     0.007504
PD2851   PD        0.268470    0.232649    0.654842     0.007504
AU2852   AU        0.266652    0.271799    0.617995     0.007504
AU2853   AU        0.305246    0.231117    0.617098     0.007504
PD2854   PD        0.305620    0.268796    0.657130     0.007504
AU2855   AU        0.344700    0.233087    0.656653     0.007504
AU2856   AU        0.341584    0.269574    0.616642     0.007504
AU2857   AU        0.381269    0.230431    0.619082     0.007504
AU2858   AU        0.383198    0.269090    0.654079     0.007504
AU2859   AU        0.419321    0.231339    0.654171     0.007504
AU2860   AU        0.422030    0.268158    0.616551     0.007504
AU2861   AU        0.458344    0.228672    0.618115     0.007504
AU2862   AU        0.460791    0.265288    0.657786     0.007504
PD2863   PD        0.500277    0.228837    0.651190     0.007504
AU2864   AU        0.494943    0.271574    0.615410     0.007504
AU2865   AU        0.535638    0.227989    0.615963     0.007504
AU2866   AU        0.536693    0.267909    0.651719     0.007504
AU2867   AU        0.577432    0.230260    0.650262     0.007504
PD2868   PD        0.575624    0.268579    0.614468     0.007504
AU2869   AU        0.614205    0.231042    0.615453     0.007504
AU2870   AU        0.615283    0.267372    0.655038     0.007504
PD2871   PD        0.654210    0.227927    0.651823     0.007504
AU2872   AU        0.652920    0.265559    0.615785     0.007504
AU2873   AU        0.693759    0.229630    0.614787     0.007504
AU2874   AU        0.692400    0.266945    0.652284     0.007504
PD2875   PD        0.731330    0.231192    0.649649     0.007504
AU2876   AU        0.731698    0.267243    0.611373     0.007504
PD2877   PD        0.769379    0.228681    0.613681     0.007504
PD2878   PD        0.768101    0.268580    0.653397     0.007504
PD2879   PD        0.803707    0.230325    0.652916     0.007504
PD2880   PD        0.805012    0.269321    0.613270     0.007504
PD2881   PD        0.840487    0.267256    0.650057     0.007504
PD2882   PD        0.040950    0.350594    0.615589     0.007504
PD2883   PD        0.077602    0.312068    0.615547     0.007504
PD2884   PD        0.077635    0.349796    0.656106     0.007504
PD2885   PD        0.113010    0.310262    0.655362     0.007504
AU2886   AU        0.111968    0.349388    0.618226     0.007504
AU2887   AU        0.151938    0.311606    0.616957     0.007504
PD2888   PD        0.150027    0.349252    0.656740     0.007504
AU2889   AU        0.188672    0.310639    0.655278     0.007504
AU2890   AU        0.186995    0.349106    0.615105     0.007504
AU2891   AU        0.223988    0.314133    0.616125     0.007504
AU2892   AU        0.227320    0.347616    0.656352     0.007504
AU2893   AU        0.264892    0.310972    0.656351     0.007504
AU2894   AU        0.265611    0.347972    0.616793     0.007504
AU2895   AU        0.304325    0.311418    0.617753     0.007504
AU2896   AU        0.308236    0.348387    0.655678     0.007504
AU2897   AU        0.345209    0.305485    0.655393     0.007504
AU2898   AU        0.346371    0.345891    0.615404     0.007504
AU2899   AU        0.381965    0.306240    0.616383     0.007504
AU2900   AU        0.382436    0.347768    0.656123     0.007504
AU2901   AU        0.419381    0.305886    0.656588     0.007504
AU2902   AU        0.419329    0.344899    0.619061     0.007504
AU2903   AU        0.459301    0.308339    0.613788     0.007504
AU2904   AU        0.460407    0.345569    0.654454     0.007504
AU2905   AU        0.498982    0.307283    0.653340     0.007504
AU2906   AU        0.499091    0.345215    0.614584     0.007504
AU2907   AU        0.539434    0.305581    0.615170     0.007504
AU2908   AU        0.538012    0.344722    0.653803     0.007504
AU2909   AU        0.576519    0.305678    0.654957     0.007504
AU2910   AU        0.575994    0.344634    0.615199     0.007504
AU2911   AU        0.613263    0.305815    0.615201     0.007504
AU2912   AU        0.615379    0.342200    0.653532     0.007504
AU2913   AU        0.655305    0.305079    0.653669     0.007504
AU2914   AU        0.654272    0.343363    0.615940     0.007504
AU2915   AU        0.693383    0.303995    0.615232     0.007504
AU2916   AU        0.695974    0.344902    0.655448     0.007504
AU2917   AU        0.731940    0.305367    0.656058     0.007504
PD2918   PD        0.731194    0.341727    0.613043     0.007504
AU2919   AU        0.767572    0.303658    0.614147     0.007504
AU2920   AU        0.769489    0.344333    0.651937     0.007504
PD2921   PD        0.805488    0.305096    0.654372     0.007504
PD2922   PD        0.807719    0.342531    0.610469     0.007504
PD2923   PD        0.843233    0.306220    0.615568     0.007504
PD2924   PD        0.839987    0.343995    0.653392     0.007504
PD2925   PD        0.879585    0.343640    0.614081     0.007504
PD2926   PD        0.040096    0.389233    0.656764     0.007504
PD2927   PD        0.038932    0.427246    0.618659     0.007504
PD2928   PD        0.076364    0.388401    0.619285     0.007504
PD2929   PD        0.076056    0.428986    0.654548     0.007504
PD2930   PD        0.113383    0.387973    0.657653     0.007504
AU2931   AU        0.111424    0.425980    0.615375     0.007504
AU2932   AU        0.148979    0.387042    0.617300     0.007504
AU2933   AU        0.151995    0.425517    0.655636     0.007504
AU2934   AU        0.189182    0.386211    0.656615     0.007504
AU2935   AU        0.186604    0.423017    0.615964     0.007504
AU2936   AU        0.228939    0.385176    0.617315     0.007504
PD2937   PD        0.227761    0.423098    0.653648     0.007504
AU2938   AU        0.266562    0.386148    0.654730     0.007504
AU2939   AU        0.267910    0.422225    0.616190     0.007504
AU2940   AU        0.307212    0.385924    0.616249     0.007504
AU2941   AU        0.307134    0.426375    0.653068     0.007504
AU2942   AU        0.343858    0.388493    0.653261     0.007504
AU2943   AU        0.346706    0.426084    0.615567     0.007504
AU2944   AU        0.383048    0.387192    0.614576     0.007504
AU2945   AU        0.384713    0.422412    0.653775     0.007504
AU2946   AU        0.421209    0.384998    0.654229     0.007504
AU2947   AU        0.423813    0.425744    0.617004     0.007504
AU2948   AU        0.459426    0.384738    0.614725     0.007504
AU2949   AU        0.462689    0.426191    0.655703     0.007504
AU2950   AU        0.499483    0.384497    0.653970     0.007504
AU2951   AU        0.498994    0.422094    0.616913     0.007504
AU2952   AU        0.538678    0.387551    0.614474     0.007504
AU2953   AU        0.537719    0.421146    0.655718     0.007504
AU2954   AU        0.575940    0.383707    0.652487     0.007504
AU2955   AU        0.575860    0.425698    0.614255     0.007504
AU2956   AU        0.618198    0.384045    0.615366     0.007504
AU2957   AU        0.616051    0.419408    0.653694     0.007504
AU2958   AU        0.655663    0.381503    0.655331     0.007504
AU2959   AU        0.654062    0.420361    0.616533     0.007504
AU2960   AU        0.696441    0.381235    0.613952     0.007504
AU2961   AU        0.692262    0.423976    0.652886     0.007504
AU2962   AU        0.732891    0.383473    0.650940     0.007504
AU2963   AU        0.731800    0.423864    0.615697     0.007504
AU2964   AU        0.772882    0.384222    0.615466     0.007504
PD2965   PD        0.770833    0.421567    0.652881     0.007504
PD2966   PD        0.808584    0.384246    0.653102     0.007504
PD2967   PD        0.809472    0.421311    0.613395     0.007504
PD2968   PD        0.843356    0.381199    0.614447     0.007504
PD2969   PD        0.845235    0.420007    0.651518     0.007504
PD2970   PD        0.881398    0.380536    0.652114     0.007504
PD2971   PD        0.880390    0.419346    0.615531     0.007504
PD2972   PD        0.039236    0.466676    0.650891     0.007504
PD2973   PD        0.039026    0.505261    0.616857     0.007504
PD2974   PD        0.076361    0.466956    0.615321     0.007504
PD2975   PD        0.075414    0.503336    0.655040     0.007504
PD2976   PD        0.114653    0.463993    0.655503     0.007504
PD2977   PD        0.114718    0.502196    0.618254     0.007504
AU2978   AU        0.150545    0.461830    0.616348     0.007504
AU2979   AU        0.152492    0.501681    0.657279     0.007504
AU2980   AU        0.190797    0.464070    0.656468     0.007504
AU2981   AU        0.189760    0.500661    0.617951     0.007504
AU2982   AU        0.228785    0.462109    0.616766     0.007504
AU2983   AU        0.229245    0.499831    0.654923     0.007504
AU2984   AU        0.268980    0.461327    0.654521     0.007504
AU2985   AU        0.268615    0.501152    0.617251     0.007504
AU2986   AU        0.306605    0.463369    0.616190     0.007504
AU2987   AU        0.303976    0.501770    0.656233     0.007504
AU2988   AU        0.346670    0.462417    0.655627     0.007504
AU2989   AU        0.347871    0.503986    0.616893     0.007504
AU2990   AU        0.384852    0.462353    0.616278     0.007504
AU2991   AU        0.382384    0.503252    0.656898     0.007504
AU2992   AU        0.422252    0.463210    0.653891     0.007504
AU2993   AU        0.424363    0.500821    0.614225     0.007504
AU2994   AU        0.460264    0.463834    0.616677     0.007504
AU2995   AU        0.460775    0.500248    0.653439     0.007504
AU2996   AU        0.501871    0.464027    0.655325     0.007504
AU2997   AU        0.500790    0.499681    0.617206     0.007504
AU2998   AU        0.539139    0.461967    0.616821     0.007504
AU2999   AU        0.540058    0.499880    0.653491     0.007504
AU3000   AU        0.578630    0.463609    0.654628     0.007504
AU3001   AU        0.580331    0.501449    0.615497     0.007504
AU3002   AU        0.617284    0.460728    0.615678     0.007504
AU3003   AU        0.616963    0.502055    0.652774     0.007504
AU3004   AU        0.655190    0.462489    0.653712     0.007504
AU3005   AU        0.653917    0.500010    0.612716     0.007504
AU3006   AU        0.692333    0.460206    0.613674     0.007504
AU3007   AU        0.691554    0.500696    0.653695     0.007504
AU3008   AU        0.731946    0.461863    0.651928     0.007504
AU3009   AU        0.732473    0.496556    0.616076     0.007504
PD3010   PD        0.770478    0.459868    0.614361     0.007504
PD3011   PD        0.771342    0.498800    0.653793     0.007504
AU3012   AU        0.806917    0.460348    0.651921     0.007504
AU3013   AU        0.807654    0.498649    0.613532     0.007504
PD3014   PD        0.844555    0.460211    0.616591     0.007504
PD3015   PD        0.847581    0.500274    0.650776     0.007504
PD3016   PD        0.883906    0.461199    0.651108     0.007504
PD3017   PD        0.884415    0.497997    0.612658     0.007504
AU3018   AU        0.038949    0.542937    0.655493     0.007504
PD3019   PD        0.047620    0.583081    0.616906     0.007504
AU3020   AU        0.077515    0.541455    0.615344     0.007504
PD3021   PD        0.079944    0.583820    0.654869     0.007504
PD3022   PD        0.113964    0.540966    0.654550     0.007504
AU3023   AU        0.114346    0.581475    0.616295     0.007504
PD3024   PD        0.150173    0.539657    0.614850     0.007504
AU3025   AU        0.153415    0.581679    0.655341     0.007504
AU3026   AU        0.188971    0.539416    0.656605     0.007504
AU3027   AU        0.188931    0.578545    0.616260     0.007504
AU3028   AU        0.225633    0.540764    0.616070     0.007504
AU3029   AU        0.229168    0.580091    0.655145     0.007504
AU3030   AU        0.266995    0.540796    0.657378     0.007504
AU3031   AU        0.270472    0.578184    0.618165     0.007504
AU3032   AU        0.306744    0.537774    0.616547     0.007504
AU3033   AU        0.307922    0.578981    0.653911     0.007504
AU3034   AU        0.344981    0.540742    0.656299     0.007504
AU3035   AU        0.345340    0.579864    0.616929     0.007504
AU3036   AU        0.385137    0.541321    0.618784     0.007504
AU3037   AU        0.382707    0.578562    0.656727     0.007504
AU3038   AU        0.421432    0.539094    0.654791     0.007504
AU3039   AU        0.425704    0.577940    0.617250     0.007504
AU3040   AU        0.460921    0.538362    0.616557     0.007504
AU3041   AU        0.461380    0.576549    0.657214     0.007504
AU3042   AU        0.499409    0.537775    0.655112     0.007504
AU3043   AU        0.500343    0.577248    0.619652     0.007504
AU3044   AU        0.539483    0.537975    0.617019     0.007504
AU3045   AU        0.538331    0.573275    0.656822     0.007504
AU3046   AU        0.577661    0.537850    0.655754     0.007504
AU3047   AU        0.576342    0.577540    0.618783     0.007504
AU3048   AU        0.616799    0.543111    0.615816     0.007504
AU3049   AU        0.614221    0.577199    0.654581     0.007504
AU3050   AU        0.653865    0.538711    0.655083     0.007504
AU3051   AU        0.655630    0.578799    0.614719     0.007504
AU3052   AU        0.692624    0.537200    0.616061     0.007504
AU3053   AU        0.695334    0.575269    0.653401     0.007504
AU3054   AU        0.734319    0.536815    0.652016     0.007504
PD3055   PD        0.733542    0.577041    0.614816     0.007504
AU3056   AU        0.773770    0.538578    0.611674     0.007504
PD3057   PD        0.771473    0.574042    0.652043     0.007504
PD3058   PD        0.809107    0.538825    0.652541     0.007504
PD3059   PD        0.810639    0.576032    0.615107     0.007504
PD3060   PD        0.844521    0.536066    0.612673     0.007504
PD3061   PD        0.847948    0.575817    0.654269     0.007504
PD3062   PD        0.882588    0.538227    0.650724     0.007504
PD3063   PD        0.881655    0.572650    0.612996     0.007504
PD3064   PD        0.079689    0.622090    0.614209     0.007504
PD3065   PD        0.079988    0.660495    0.656641     0.007504
PD3066   PD        0.116747    0.621293    0.654228     0.007504
PD3067   PD        0.117529    0.659105    0.618574     0.007504
AU3068   AU        0.153649    0.619963    0.617414     0.007504
PD3069   PD        0.157070    0.659416    0.657173     0.007504
AU3070   AU        0.192554    0.620643    0.653841     0.007504
AU3071   AU        0.192200    0.658840    0.617972     0.007504
AU3072   AU        0.231668    0.617692    0.616878     0.007504
PD3073   PD        0.230538    0.660592    0.653892     0.007504
AU3074   AU        0.269460    0.616209    0.655856     0.007504
AU3075   AU        0.268413    0.658731    0.620240     0.007504
AU3076   AU        0.305732    0.623507    0.616898     0.007504
AU3077   AU        0.304615    0.656147    0.656913     0.007504
AU3078   AU        0.343953    0.616413    0.656830     0.007504
AU3079   AU        0.345802    0.657425    0.620184     0.007504
AU3080   AU        0.383746    0.618257    0.619624     0.007504
AU3081   AU        0.384265    0.656250    0.656589     0.007504
AU3082   AU        0.422269    0.616259    0.657162     0.007504
AU3083   AU        0.424765    0.653944    0.618075     0.007504
AU3084   AU        0.465091    0.616197    0.617263     0.007504
AU3085   AU        0.462426    0.654954    0.656154     0.007504
AU3086   AU        0.500293    0.614894    0.655341     0.007504
AU3087   AU        0.502845    0.654098    0.618809     0.007504
AU3088   AU        0.537582    0.615870    0.619287     0.007504
PD3089   PD        0.540897    0.653500    0.656627     0.007504
AU3090   AU        0.575348    0.613654    0.656643     0.007504
AU3091   AU        0.576080    0.652550    0.616675     0.007504
AU3092   AU        0.618303    0.616257    0.617145     0.007504
AU3093   AU        0.617091    0.654511    0.655967     0.007504
AU3094   AU        0.655294    0.615078    0.655078     0.007504
AU3095   AU        0.657159    0.655671    0.614216     0.007504
AU3096   AU        0.694751    0.614669    0.613663     0.007504
AU3097   AU        0.694020    0.652812    0.651883     0.007504
AU3098   AU        0.734041    0.612605    0.651655     0.007504
AU3099   AU        0.735051    0.650866    0.613059     0.007504
AU3100   AU        0.771335    0.612322    0.611537     0.007504
PD3101   PD        0.773135    0.651996    0.649303     0.007504
PD3102   PD        0.807294    0.613093    0.651128     0.007504
PD3103   PD        0.808463    0.652101    0.610063     0.007504
PD3104   PD        0.847834    0.613234    0.611792     0.007504
PD3105   PD        0.843306    0.650888    0.648195     0.007504
PD3106   PD        0.119712    0.696931    0.656113     0.007504
PD3107   PD        0.118782    0.736859    0.618637     0.007504
AU3108   AU        0.155008    0.698525    0.618102     0.007504
PD3109   PD        0.157865    0.736072    0.659586     0.007504
PD3110   PD        0.193441    0.696480    0.656472     0.007504
PD3111   PD        0.193738    0.731976    0.618542     0.007504
PD3112   PD        0.231532    0.697086    0.615910     0.007504
PD3113   PD        0.230760    0.734948    0.658262     0.007504
PD3114   PD        0.270066    0.697233    0.654595     0.007504
AU3115   AU        0.268488    0.732595    0.618458     0.007504
AU3116   AU        0.309038    0.695638    0.618543     0.007504
PD3117   PD        0.309266    0.733770    0.655504     0.007504
AU3118   AU        0.348627    0.695171    0.656951     0.007504
PD3119   PD        0.346115    0.733668    0.616082     0.007504
AU3120   AU        0.385819    0.696198    0.619397     0.007504
PD3121   PD        0.385397    0.734212    0.655429     0.007504
AU3122   AU        0.426130    0.694473    0.657108     0.007504
AU3123   AU        0.426903    0.733148    0.618542     0.007504
AU3124   AU        0.461057    0.693691    0.616016     0.007504
PD3125   PD        0.466260    0.734302    0.656326     0.007504
AU3126   AU        0.503511    0.692612    0.657703     0.007504
AU3127   AU        0.501675    0.737561    0.617492     0.007504
AU3128   AU        0.539255    0.693904    0.616722     0.007504
AU3129   AU        0.540814    0.728503    0.656896     0.007504
AU3130   AU        0.578025    0.692071    0.656850     0.007504
AU3131   AU        0.579727    0.729506    0.617627     0.007504
AU3132   AU        0.618396    0.691387    0.615937     0.007504
AU3133   AU        0.617733    0.730085    0.655171     0.007504
AU3134   AU        0.655385    0.691423    0.651802     0.007504
AU3135   AU        0.655665    0.731067    0.616295     0.007504
PD3136   PD        0.697758    0.690781    0.613600     0.007504
AU3137   AU        0.694695    0.727835    0.650969     0.007504
PD3138   PD        0.733806    0.689988    0.650558     0.007504
PD3139   PD        0.735095    0.724982    0.613466     0.007504
PD3140   PD        0.770994    0.688794    0.613443     0.007504
PD3141   PD        0.771997    0.725286    0.653299     0.007504
PD3142   PD        0.808717    0.689540    0.649956     0.007504
PD3143   PD        0.809662    0.725899    0.611145     0.007504
PD3144   PD        0.158916    0.770279    0.619716     0.007504
PD3145   PD        0.196143    0.772441    0.656685     0.007504
PD3146   PD        0.196111    0.808391    0.617607     0.007504
PD3147   PD        0.234523    0.771265    0.618565     0.007504
PD3148   PD        0.235190    0.809421    0.655756     0.007504
PD3149   PD        0.269742    0.772373    0.656798     0.007504
PD3150   PD        0.270684    0.810934    0.617676     0.007504
AU3151   AU        0.306581    0.771619    0.619315     0.007504
PD3152   PD        0.309487    0.807703    0.655938     0.007504
PD3153   PD        0.344845    0.769047    0.655815     0.007504
PD3154   PD        0.343782    0.809572    0.617112     0.007504
AU3155   AU        0.384739    0.769197    0.618610     0.007504
AU3156   AU        0.385469    0.806987    0.658012     0.007504
AU3157   AU        0.423778    0.769654    0.656051     0.007504
PD3158   PD        0.424525    0.808606    0.617433     0.007504
AU3159   AU        0.462481    0.769875    0.618963     0.007504
PD3160   PD        0.463434    0.806968    0.656235     0.007504
AU3161   AU        0.503838    0.769663    0.658931     0.007504
AU3162   AU        0.502296    0.807629    0.616288     0.007504
AU3163   AU        0.542490    0.769888    0.617338     0.007504
PD3164   PD        0.541398    0.805732    0.655176     0.007504
PD3165   PD        0.580194    0.772023    0.655490     0.007504
PD3166   PD        0.580961    0.810584    0.616214     0.007504
AU3167   AU        0.616620    0.769998    0.618153     0.007504
PD3168   PD        0.620010    0.807970    0.655293     0.007504
PD3169   PD        0.661413    0.768452    0.652641     0.007504
PD3170   PD        0.655285    0.805101    0.615761     0.007504
PD3171   PD        0.696115    0.767126    0.616030     0.007504
PD3172   PD        0.698778    0.802356    0.655365     0.007504
PD3173   PD        0.733850    0.764011    0.654802     0.007504
PD3174   PD        0.734153    0.801010    0.616525     0.007504
PD3175   PD        0.771623    0.763349    0.615851     0.007504
PD3176   PD        0.274825    0.846251    0.655566     0.007504
PD3177   PD        0.307412    0.844485    0.613404     0.007504
PD3178   PD        0.345898    0.843047    0.656994     0.007504
PD3179   PD        0.344377    0.879835    0.619436     0.007504
PD3180   PD        0.385777    0.844475    0.618272     0.007504
PD3181   PD        0.385035    0.880513    0.655376     0.007504
PD3182   PD        0.424873    0.844357    0.655718     0.007504
PD3183   PD        0.426568    0.882133    0.618669     0.007504
PD3184   PD        0.463720    0.842701    0.617359     0.007504
PD3185   PD        0.463454    0.879634    0.652103     0.007504
PD3186   PD        0.502322    0.842375    0.656701     0.007504
PD3187   PD        0.502061    0.879075    0.617682     0.007504
PD3188   PD        0.541062    0.843328    0.619697     0.007504
PD3189   PD        0.538985    0.883770    0.654529     0.007504
PD3190   PD        0.578885    0.844027    0.655099     0.007504
PD3191   PD        0.577808    0.881325    0.615674     0.007504
PD3192   PD        0.619828    0.844404    0.617627     0.007504
PD3193   PD        0.661428    0.838635    0.650779     0.007504
PD3194   PD        0.267484    0.120090    0.691799     0.007504
PD3195   PD        0.304341    0.118855    0.729719     0.007504
PD3196   PD        0.345705    0.118979    0.690548     0.007504
PD3197   PD        0.381366    0.079299    0.688308     0.007504
PD3198   PD        0.381014    0.114893    0.726857     0.007504
PD3199   PD        0.418700    0.080921    0.727551     0.007504
PD3200   PD        0.419138    0.117922    0.691669     0.007504
PD3201   PD        0.455906    0.079879    0.689845     0.007504
PD3202   PD        0.459219    0.118989    0.729763     0.007504
PD3203   PD        0.497522    0.077464    0.727654     0.007504
AU3204   AU        0.499122    0.115191    0.691798     0.007504
PD3205   PD        0.536992    0.078739    0.690600     0.007504
PD3206   PD        0.536090    0.118449    0.726314     0.007504
PD3207   PD        0.576822    0.115903    0.690597     0.007504
PD3208   PD        0.614759    0.115436    0.729042     0.007504
PD3209   PD        0.649651    0.114694    0.686106     0.007504
PD3210   PD        0.190665    0.191782    0.692331     0.007504
PD3211   PD        0.229054    0.155216    0.690817     0.007504
PD3212   PD        0.231061    0.192698    0.727110     0.007504
PD3213   PD        0.268888    0.156539    0.729463     0.007504
PD3214   PD        0.267652    0.192156    0.689016     0.007504
PD3215   PD        0.306976    0.157234    0.690131     0.007504
PD3216   PD        0.305836    0.191104    0.729883     0.007504
PD3217   PD        0.346380    0.156571    0.727417     0.007504
AU3218   AU        0.343083    0.193422    0.690533     0.007504
PD3219   PD        0.383173    0.154197    0.690453     0.007504
AU3220   AU        0.382541    0.193564    0.727901     0.007504
PD3221   PD        0.419730    0.155936    0.729823     0.007504
PD3222   PD        0.420957    0.192544    0.692716     0.007504
PD3223   PD        0.460405    0.151811    0.690666     0.007504
PD3224   PD        0.460299    0.190435    0.731653     0.007504
PD3225   PD        0.497759    0.154924    0.729029     0.007504
AU3226   AU        0.498568    0.192566    0.692556     0.007504
PD3227   PD        0.538801    0.154901    0.691053     0.007504
AU3228   AU        0.539479    0.193514    0.729385     0.007504
PD3229   PD        0.574298    0.153809    0.729811     0.007504
PD3230   PD        0.577618    0.193847    0.691604     0.007504
PD3231   PD        0.615894    0.154282    0.691548     0.007504
PD3232   PD        0.613076    0.191080    0.727862     0.007504
PD3233   PD        0.653291    0.156055    0.729288     0.007504
PD3234   PD        0.652690    0.192524    0.690024     0.007504
PD3235   PD        0.687915    0.154311    0.689563     0.007504
PD3236   PD        0.689990    0.193532    0.726340     0.007504
PD3237   PD        0.726584    0.192001    0.687323     0.007504
PD3238   PD        0.115954    0.269073    0.694756     0.007504
PD3239   PD        0.156501    0.231712    0.690290     0.007504
PD3240   PD        0.152030    0.269504    0.729909     0.007504
AU3241   AU        0.186715    0.227033    0.734299     0.007504
PD3242   PD        0.187234    0.272904    0.691603     0.007504
AU3243   AU        0.228035    0.233525    0.691845     0.007504
PD3244   PD        0.223875    0.269894    0.729235     0.007504
PD3245   PD        0.266038    0.231936    0.727734     0.007504
AU3246   AU        0.264648    0.272160    0.691714     0.007504
AU3247   AU        0.305028    0.228810    0.692720     0.007504
AU3248   AU        0.303228    0.268906    0.731824     0.007504
AU3249   AU        0.341817    0.231436    0.729546     0.007504
AU3250   AU        0.342996    0.267908    0.692860     0.007504
PD3251   PD        0.381881    0.232497    0.691885     0.007504
AU3252   AU        0.381247    0.272112    0.730569     0.007504
PD3253   PD        0.419982    0.228741    0.732699     0.007504
AU3254   AU        0.420428    0.266990    0.693816     0.007504
AU3255   AU        0.457848    0.228116    0.693400     0.007504
AU3256   AU        0.460414    0.266625    0.728973     0.007504
AU3257   AU        0.499366    0.228367    0.731046     0.007504
AU3258   AU        0.498153    0.266972    0.694639     0.007504
PD3259   PD        0.537453    0.228554    0.689448     0.007504
AU3260   AU        0.538552    0.266743    0.729548     0.007504
PD3261   PD        0.576267    0.229455    0.728912     0.007504
AU3262   AU        0.574465    0.266079    0.691103     0.007504
PD3263   PD        0.615263    0.227562    0.689463     0.007504
PD3264   PD        0.613997    0.266038    0.725897     0.007504
PD3265   PD        0.653016    0.227330    0.728275     0.007504
PD3266   PD        0.652914    0.265662    0.690167     0.007504
PD3267   PD        0.690949    0.231050    0.689496     0.007504
PD3268   PD        0.692895    0.267204    0.727725     0.007504
PD3269   PD        0.728776    0.229671    0.727358     0.007504
PD3270   PD        0.728329    0.267063    0.690728     0.007504
PD3271   PD        0.765332    0.227102    0.688816     0.007504
PD3272   PD        0.765081    0.265505    0.727784     0.007504
PD3273   PD        0.805251    0.267167    0.691135     0.007504
PD3274   PD        0.114381    0.308372    0.729895     0.007504
PD3275   PD        0.114598    0.347762    0.693456     0.007504
PD3276   PD        0.150599    0.310237    0.693896     0.007504
PD3277   PD        0.151093    0.348170    0.732459     0.007504
PD3278   PD        0.189436    0.308351    0.731459     0.007504
AU3279   AU        0.189848    0.348342    0.695648     0.007504
PD3280   PD        0.224554    0.309675    0.693031     0.007504
PD3281   PD        0.227196    0.349100    0.731190     0.007504
AU3282   AU        0.264590    0.308171    0.731024     0.007504
AU3283   AU        0.266937    0.350954    0.691719     0.007504
AU3284   AU        0.304493    0.311033    0.695420     0.007504
AU3285   AU        0.306742    0.347623    0.733403     0.007504
AU3286   AU        0.344768    0.310072    0.730230     0.007504
AU3287   AU        0.343574    0.348520    0.693778     0.007504
AU3288   AU        0.381583    0.308939    0.692993     0.007504
AU3289   AU        0.383430    0.347696    0.732036     0.007504
AU3290   AU        0.425298    0.305932    0.728370     0.007504
AU3291   AU        0.421705    0.344739    0.694110     0.007504
AU3292   AU        0.462093    0.307091    0.690482     0.007504
AU3293   AU        0.459078    0.345926    0.731581     0.007504
AU3294   AU        0.496496    0.306716    0.729784     0.007504
AU3295   AU        0.498067    0.346109    0.693653     0.007504
AU3296   AU        0.537837    0.308581    0.692233     0.007504
AU3297   AU        0.540103    0.346668    0.731752     0.007504
AU3298   AU        0.578109    0.305632    0.729631     0.007504
AU3299   AU        0.577822    0.344349    0.693809     0.007504
AU3300   AU        0.615331    0.305990    0.691209     0.007504
AU3301   AU        0.614961    0.342268    0.733169     0.007504
PD3302   PD        0.652059    0.304176    0.726845     0.007504
AU3303   AU        0.652040    0.344482    0.693505     0.007504
PD3304   PD        0.691337    0.303828    0.692246     0.007504
PD3305   PD        0.695281    0.344264    0.727167     0.007504
PD3306   PD        0.731108    0.303619    0.728798     0.007504
AU3307   AU        0.732576    0.343895    0.691941     0.007504
PD3308   PD        0.769700    0.303908    0.691453     0.007504
PD3309   PD        0.768703    0.342689    0.728319     0.007504
PD3310   PD        0.806216    0.305184    0.730656     0.007504
PD3311   PD        0.805172    0.343071    0.692111     0.007504
PD3312   PD        0.078244    0.391234    0.694052     0.007504
PD3313   PD        0.077509    0.429655    0.731941     0.007504
PD3314   PD        0.113188    0.387998    0.733796     0.007504
AU3315   AU        0.114901    0.427133    0.694305     0.007504
PD3316   PD        0.152795    0.385476    0.693726     0.007504
AU3317   AU        0.153763    0.424164    0.734503     0.007504
PD3318   PD        0.191105    0.386167    0.730419     0.007504
AU3319   AU        0.190768    0.425556    0.694404     0.007504
AU3320   AU        0.229158    0.389411    0.693041     0.007504
PD3321   PD        0.228426    0.423948    0.732220     0.007504
AU3322   AU        0.266776    0.387131    0.734558     0.007504
AU3323   AU        0.268082    0.425215    0.695068     0.007504
AU3324   AU        0.304759    0.387418    0.694770     0.007504
AU3325   AU        0.306650    0.425920    0.734116     0.007504
AU3326   AU        0.343591    0.385846    0.732928     0.007504
AU3327   AU        0.344719    0.424231    0.692619     0.007504
AU3328   AU        0.382810    0.385698    0.694110     0.007504
AU3329   AU        0.384345    0.423681    0.732959     0.007504
AU3330   AU        0.423261    0.386040    0.731734     0.007504
AU3331   AU        0.422821    0.425870    0.694296     0.007504
AU3332   AU        0.461935    0.385778    0.688721     0.007504
AU3333   AU        0.459725    0.425480    0.734936     0.007504
AU3334   AU        0.497729    0.384077    0.731076     0.007504
AU3335   AU        0.499115    0.425216    0.694334     0.007504
AU3336   AU        0.537711    0.383732    0.692992     0.007504
AU3337   AU        0.539779    0.422005    0.733174     0.007504
AU3338   AU        0.576106    0.384285    0.730574     0.007504
AU3339   AU        0.578931    0.424421    0.694424     0.007504
AU3340   AU        0.615274    0.383804    0.692072     0.007504
AU3341   AU        0.616453    0.422135    0.729997     0.007504
AU3342   AU        0.654131    0.383113    0.729925     0.007504
AU3343   AU        0.656968    0.422913    0.692122     0.007504
AU3344   AU        0.694277    0.383784    0.691532     0.007504
AU3345   AU        0.696120    0.420653    0.730689     0.007504
PD3346   PD        0.731730    0.380755    0.728922     0.007504
AU3347   AU        0.734362    0.424317    0.689040     0.007504
PD3348   PD        0.772146    0.380939    0.687874     0.007504
AU3349   AU        0.771165    0.421534    0.729991     0.007504
PD3350   PD        0.806429    0.383992    0.728430     0.007504
PD3351   PD        0.808716    0.420692    0.689213     0.007504
PD3352   PD        0.844103    0.381846    0.692214     0.007504
PD3353   PD        0.846173    0.420589    0.727487     0.007504
PD3354   PD        0.075571    0.464631    0.693259     0.007504
PD3355   PD        0.077373    0.503894    0.730375     0.007504
PD3356   PD        0.115886    0.467033    0.733970     0.007504
PD3357   PD        0.112764    0.500870    0.695043     0.007504
PD3358   PD        0.151600    0.462877    0.693994     0.007504
PD3359   PD        0.154878    0.500219    0.732098     0.007504
PD3360   PD        0.194392    0.462862    0.734943     0.007504
AU3361   AU        0.193786    0.501204    0.698273     0.007504
AU3362   AU        0.227873    0.460716    0.691541     0.007504
PD3363   PD        0.231051    0.503532    0.735666     0.007504
AU3364   AU        0.266287    0.461900    0.730990     0.007504
AU3365   AU        0.266887    0.499255    0.693727     0.007504
AU3366   AU        0.308040    0.466210    0.693829     0.007504
AU3367   AU        0.306104    0.504396    0.733371     0.007504
AU3368   AU        0.343404    0.463079    0.729848     0.007504
AU3369   AU        0.344744    0.503449    0.692504     0.007504
AU3370   AU        0.383423    0.463389    0.694770     0.007504
AU3371   AU        0.383420    0.498650    0.731952     0.007504
AU3372   AU        0.424671    0.463524    0.734120     0.007504
AU3373   AU        0.424005    0.500688    0.696132     0.007504
AU3374   AU        0.462683    0.461734    0.695593     0.007504
AU3375   AU        0.462209    0.496847    0.731229     0.007504
AU3376   AU        0.502591    0.460504    0.734969     0.007504
AU3377   AU        0.503535    0.497879    0.694874     0.007504
AU3378   AU        0.539529    0.459457    0.695891     0.007504
AU3379   AU        0.541742    0.499296    0.734579     0.007504
AU3380   AU        0.580742    0.461344    0.730308     0.007504
AU3381   AU        0.580121    0.498653    0.693875     0.007504
AU3382   AU        0.615782    0.461015    0.690797     0.007504
AU3383   AU        0.619885    0.498030    0.731952     0.007504
AU3384   AU        0.656716    0.458630    0.730654     0.007504
AU3385   AU        0.654579    0.497897    0.692325     0.007504
PD3386   PD        0.697765    0.459567    0.693429     0.007504
AU3387   AU        0.694252    0.496747    0.729547     0.007504
PD3388   PD        0.735644    0.463164    0.731561     0.007504
PD3389   PD        0.731973    0.497542    0.690712     0.007504
PD3390   PD        0.771081    0.460504    0.690102     0.007504
PD3391   PD        0.770396    0.498925    0.724959     0.007504
PD3392   PD        0.807823    0.459385    0.728177     0.007504
PD3393   PD        0.808888    0.499277    0.688434     0.007504
PD3394   PD        0.845924    0.456253    0.687555     0.007504
PD3395   PD        0.847711    0.496142    0.722713     0.007504
PD3396   PD        0.079594    0.545532    0.692647     0.007504
PD3397   PD        0.114427    0.540997    0.733464     0.007504
PD3398   PD        0.118169    0.582999    0.692693     0.007504
AU3399   AU        0.151504    0.542762    0.696560     0.007504
PD3400   PD        0.157057    0.580884    0.734485     0.007504
PD3401   PD        0.192578    0.541790    0.732616     0.007504
AU3402   AU        0.189855    0.577638    0.695779     0.007504
AU3403   AU        0.229504    0.539880    0.693007     0.007504
AU3404   AU        0.231209    0.579328    0.733997     0.007504
PD3405   PD        0.268666    0.540264    0.737324     0.007504
AU3406   AU        0.269553    0.577760    0.695839     0.007504
AU3407   AU        0.305351    0.539881    0.695189     0.007504
AU3408   AU        0.306658    0.581124    0.734694     0.007504
AU3409   AU        0.345074    0.539969    0.732645     0.007504
AU3410   AU        0.344835    0.579001    0.695483     0.007504
AU3411   AU        0.384931    0.539438    0.694973     0.007504
AU3412   AU        0.384958    0.577394    0.735150     0.007504
AU3413   AU        0.421297    0.537227    0.735840     0.007504
AU3414   AU        0.423939    0.576723    0.695930     0.007504
AU3415   AU        0.460414    0.537425    0.693767     0.007504
AU3416   AU        0.463891    0.574620    0.734673     0.007504
AU3417   AU        0.497275    0.537803    0.731016     0.007504
AU3418   AU        0.499675    0.575847    0.694723     0.007504
AU3419   AU        0.540148    0.533635    0.695408     0.007504
AU3420   AU        0.537624    0.576819    0.731612     0.007504
AU3421   AU        0.578028    0.537739    0.732659     0.007504
AU3422   AU        0.577859    0.576994    0.693742     0.007504
AU3423   AU        0.616474    0.537728    0.695487     0.007504
AU3424   AU        0.615417    0.576181    0.730749     0.007504
AU3425   AU        0.658077    0.537207    0.731783     0.007504
AU3426   AU        0.656880    0.577507    0.693275     0.007504
AU3427   AU        0.693732    0.536320    0.690842     0.007504
PD3428   PD        0.695352    0.575509    0.727149     0.007504
PD3429   PD        0.733135    0.537614    0.725562     0.007504
PD3430   PD        0.734440    0.574384    0.689944     0.007504
PD3431   PD        0.772016    0.536280    0.688381     0.007504
AU3432   AU        0.771561    0.573845    0.729385     0.007504
PD3433   PD        0.808819    0.534766    0.726795     0.007504
PD3434   PD        0.808760    0.575398    0.689670     0.007504
PD3435   PD        0.845831    0.535897    0.689279     0.007504
PD3436   PD        0.120319    0.619599    0.729103     0.007504
PD3437   PD        0.116166    0.658857    0.693016     0.007504
PD3438   PD        0.154777    0.621115    0.691586     0.007504
PD3439   PD        0.157127    0.658077    0.731300     0.007504
AU3440   AU        0.193663    0.618827    0.734577     0.007504
AU3441   AU        0.194683    0.656689    0.692528     0.007504
PD3442   PD        0.230009    0.618744    0.694801     0.007504
PD3443   PD        0.231819    0.654429    0.732612     0.007504
AU3444   AU        0.269854    0.617364    0.733654     0.007504
AU3445   AU        0.267424    0.657428    0.693234     0.007504
AU3446   AU        0.304819    0.619168    0.694574     0.007504
PD3447   PD        0.310838    0.654318    0.735946     0.007504
AU3448   AU        0.347269    0.617331    0.735017     0.007504
AU3449   AU        0.346285    0.653642    0.694147     0.007504
PD3450   PD        0.385313    0.616877    0.695782     0.007504
AU3451   AU        0.384350    0.654812    0.732108     0.007504
AU3452   AU        0.425787    0.616575    0.731184     0.007504
AU3453   AU        0.421962    0.656636    0.694727     0.007504
AU3454   AU        0.463739    0.620084    0.693843     0.007504
PD3455   PD        0.467023    0.654133    0.734522     0.007504
PD3456   PD        0.504904    0.617083    0.736181     0.007504
AU3457   AU        0.503620    0.655173    0.695894     0.007504
AU3458   AU        0.539984    0.616587    0.696019     0.007504
AU3459   AU        0.543720    0.655536    0.732825     0.007504
AU3460   AU        0.576812    0.614749    0.733512     0.007504
PD3461   PD        0.578931    0.652932    0.694721     0.007504
AU3462   AU        0.613595    0.615820    0.694067     0.007504
AU3463   AU        0.619257    0.653694    0.731397     0.007504
AU3464   AU        0.653263    0.613716    0.730625     0.007504
AU3465   AU        0.653656    0.655122    0.692590     0.007504
AU3466   AU        0.693614    0.615895    0.691363     0.007504
PD3467   PD        0.693997    0.651489    0.730301     0.007504
PD3468   PD        0.733508    0.614957    0.725725     0.007504
AU3469   AU        0.733463    0.651124    0.688138     0.007504
PD3470   PD        0.771448    0.613627    0.688747     0.007504
PD3471   PD        0.770579    0.652809    0.725543     0.007504
PD3472   PD        0.807992    0.613688    0.726473     0.007504
PD3473   PD        0.808422    0.652053    0.689782     0.007504
PD3474   PD        0.157220    0.696642    0.693920     0.007504
PD3475   PD        0.198140    0.692410    0.733123     0.007504
PD3476   PD        0.195321    0.733215    0.696780     0.007504
AU3477   AU        0.232435    0.697064    0.695357     0.007504
PD3478   PD        0.232672    0.731895    0.737105     0.007504
PD3479   PD        0.270270    0.692335    0.733236     0.007504
PD3480   PD        0.269723    0.733446    0.695682     0.007504
AU3481   AU        0.309479    0.696124    0.695205     0.007504
PD3482   PD        0.309221    0.733256    0.731458     0.007504
AU3483   AU        0.346818    0.694263    0.733871     0.007504
PD3484   PD        0.348761    0.734342    0.693722     0.007504
AU3485   AU        0.385926    0.695469    0.695464     0.007504
PD3486   PD        0.388001    0.731429    0.734166     0.007504
AU3487   AU        0.426347    0.693741    0.732084     0.007504
AU3488   AU        0.425567    0.733246    0.694681     0.007504
AU3489   AU        0.461966    0.693854    0.693328     0.007504
AU3490   AU        0.464577    0.733194    0.731895     0.007504
AU3491   AU        0.502647    0.694912    0.733435     0.007504
AU3492   AU        0.503335    0.732705    0.695861     0.007504
PD3493   PD        0.544225    0.692772    0.696902     0.007504
AU3494   AU        0.542325    0.730995    0.734241     0.007504
PD3495   PD        0.582452    0.694142    0.731280     0.007504
PD3496   PD        0.580250    0.731145    0.692795     0.007504
PD3497   PD        0.621032    0.693235    0.694148     0.007504
PD3498   PD        0.621192    0.730960    0.730260     0.007504
PD3499   PD        0.658308    0.688870    0.730848     0.007504
PD3500   PD        0.657146    0.727707    0.693163     0.007504
AU3501   AU        0.692179    0.688537    0.690424     0.007504
PD3502   PD        0.694366    0.725630    0.728370     0.007504
PD3503   PD        0.732548    0.690788    0.731232     0.007504
PD3504   PD        0.731598    0.725010    0.689276     0.007504
PD3505   PD        0.771071    0.688451    0.687151     0.007504
PD3506   PD        0.234263    0.771823    0.697455     0.007504
PD3507   PD        0.271726    0.768523    0.735209     0.007504
PD3508   PD        0.270381    0.810525    0.695550     0.007504
AU3509   AU        0.306466    0.771948    0.693702     0.007504
PD3510   PD        0.311498    0.806693    0.733404     0.007504
PD3511   PD        0.350408    0.768091    0.733337     0.007504
PD3512   PD        0.347747    0.806453    0.695364     0.007504
PD3513   PD        0.388037    0.770132    0.696974     0.007504
PD3514   PD        0.387291    0.807638    0.732781     0.007504
PD3515   PD        0.426690    0.771415    0.732960     0.007504
PD3516   PD        0.423506    0.807584    0.693568     0.007504
PD3517   PD        0.464206    0.771666    0.695427     0.007504
PD3518   PD        0.464399    0.808091    0.732910     0.007504
AU3519   AU        0.503166    0.770387    0.732497     0.007504
PD3520   PD        0.502976    0.810004    0.692738     0.007504
PD3521   PD        0.542824    0.769788    0.693074     0.007504
PD3522   PD        0.540919    0.807593    0.730839     0.007504
PD3523   PD        0.579170    0.768397    0.729934     0.007504
PD3524   PD        0.581999    0.808831    0.694603     0.007504
PD3525   PD        0.620142    0.767692    0.693236     0.007504
PD3526   PD        0.618987    0.806483    0.728463     0.007504
PD3527   PD        0.660539    0.767264    0.731146     0.007504
PD3528   PD        0.659168    0.803892    0.689676     0.007504
PD3529   PD        0.697061    0.763537    0.695174     0.007504
PD3530   PD        0.386337    0.843159    0.694025     0.007504
PD3531   PD        0.424573    0.844787    0.729349     0.007504
PD3532   PD        0.463204    0.845192    0.693673     0.007504
PD3533   PD        0.505600    0.845559    0.732038     0.007504
PD3534   PD        0.539280    0.844189    0.690171     0.007504
PD3535   PD        0.419602    0.116681    0.768024     0.007504
PD3536   PD        0.500305    0.118155    0.765082     0.007504
PD3537   PD        0.267161    0.195262    0.769387     0.007504
PD3538   PD        0.307345    0.158172    0.768352     0.007504
PD3539   PD        0.305060    0.196571    0.806699     0.007504
PD3540   PD        0.345747    0.193800    0.768485     0.007504
PD3541   PD        0.381353    0.152773    0.765264     0.007504
PD3542   PD        0.383497    0.192698    0.806025     0.007504
PD3543   PD        0.419161    0.155804    0.803373     0.007504
AU3544   AU        0.420979    0.192396    0.767011     0.007504
PD3545   PD        0.462599    0.154330    0.767514     0.007504
AU3546   AU        0.461221    0.192424    0.805498     0.007504
PD3547   PD        0.501561    0.153456    0.804853     0.007504
PD3548   PD        0.500556    0.190312    0.766958     0.007504
PD3549   PD        0.536611    0.155866    0.765387     0.007504
AU3550   AU        0.537573    0.194010    0.804472     0.007504
PD3551   PD        0.577936    0.194168    0.765588     0.007504
AU3552   AU        0.613606    0.154614    0.766748     0.007504
PD3553   PD        0.614103    0.195649    0.804499     0.007504
PD3554   PD        0.652935    0.191505    0.766109     0.007504
PD3555   PD        0.188726    0.268104    0.768707     0.007504
PD3556   PD        0.229602    0.231489    0.766927     0.007504
PD3557   PD        0.228161    0.269449    0.805224     0.007504
PD3558   PD        0.267670    0.234541    0.805100     0.007504
PD3559   PD        0.264806    0.268967    0.765793     0.007504
PD3560   PD        0.307774    0.228042    0.767692     0.007504
PD3561   PD        0.307568    0.269961    0.803311     0.007504
PD3562   PD        0.346538    0.230593    0.809407     0.007504
PD3563   PD        0.346368    0.271352    0.768738     0.007504
AU3564   AU        0.384170    0.233310    0.769232     0.007504
PD3565   PD        0.385579    0.270795    0.807893     0.007504
PD3566   PD        0.424038    0.230512    0.806839     0.007504
AU3567   AU        0.422476    0.270160    0.770454     0.007504
PD3568   PD        0.462043    0.229608    0.768259     0.007504
PD3569   PD        0.464153    0.267717    0.804311     0.007504
PD3570   PD        0.499398    0.230867    0.803246     0.007504
PD3571   PD        0.499586    0.267928    0.767883     0.007504
PD3572   PD        0.538397    0.230884    0.766514     0.007504
PD3573   PD        0.539028    0.267682    0.805101     0.007504
PD3574   PD        0.575867    0.231830    0.803472     0.007504
PD3575   PD        0.577059    0.267130    0.765320     0.007504
PD3576   PD        0.614385    0.231287    0.765240     0.007504
AU3577   AU        0.616251    0.266224    0.806902     0.007504
PD3578   PD        0.652915    0.228896    0.804250     0.007504
PD3579   PD        0.657146    0.266837    0.763356     0.007504
PD3580   PD        0.690576    0.226632    0.765872     0.007504
PD3581   PD        0.692543    0.266333    0.804220     0.007504
PD3582   PD        0.728484    0.264992    0.766344     0.007504
PD3583   PD        0.151012    0.308021    0.767924     0.007504
PD3584   PD        0.190340    0.311193    0.806358     0.007504
PD3585   PD        0.187939    0.348618    0.768919     0.007504
PD3586   PD        0.225980    0.306714    0.765439     0.007504
PD3587   PD        0.228446    0.345937    0.805747     0.007504
PD3588   PD        0.265852    0.306926    0.805702     0.007504
AU3589   AU        0.267566    0.346543    0.768864     0.007504
AU3590   AU        0.308809    0.308946    0.769548     0.007504
PD3591   PD        0.306704    0.348750    0.807957     0.007504
PD3592   PD        0.346264    0.310653    0.808167     0.007504
PD3593   PD        0.345696    0.349552    0.770462     0.007504
AU3594   AU        0.385457    0.309742    0.771047     0.007504
PD3595   PD        0.384411    0.345742    0.808283     0.007504
AU3596   AU        0.422601    0.304742    0.809279     0.007504
AU3597   AU        0.426249    0.348271    0.772326     0.007504
PD3598   PD        0.459808    0.304719    0.770249     0.007504
PD3599   PD        0.463808    0.345024    0.806136     0.007504
PD3600   PD        0.497873    0.305591    0.807771     0.007504
PD3601   PD        0.498556    0.345475    0.768011     0.007504
PD3602   PD        0.535867    0.304302    0.766995     0.007504
AU3603   AU        0.540427    0.342570    0.802667     0.007504
PD3604   PD        0.577131    0.306109    0.806431     0.007504
AU3605   AU        0.577514    0.346112    0.768975     0.007504
AU3606   AU        0.618427    0.303159    0.769367     0.007504
PD3607   PD        0.617286    0.342411    0.804755     0.007504
PD3608   PD        0.656069    0.303693    0.804247     0.007504
PD3609   PD        0.654671    0.342175    0.767814     0.007504
PD3610   PD        0.695044    0.308587    0.764959     0.007504
PD3611   PD        0.692795    0.342589    0.803576     0.007504
PD3612   PD        0.729690    0.304395    0.802150     0.007504
PD3613   PD        0.734125    0.342422    0.767098     0.007504
PD3614   PD        0.768311    0.302640    0.767652     0.007504
PD3615   PD        0.116382    0.426716    0.769780     0.007504
PD3616   PD        0.149161    0.384375    0.771087     0.007504
PD3617   PD        0.156564    0.429658    0.808558     0.007504
PD3618   PD        0.190088    0.383118    0.807064     0.007504
AU3619   AU        0.192783    0.422644    0.770758     0.007504
PD3620   PD        0.228495    0.383908    0.769061     0.007504
PD3621   PD        0.230622    0.424700    0.807296     0.007504
PD3622   PD        0.267768    0.384730    0.804031     0.007504
AU3623   AU        0.267126    0.424134    0.769155     0.007504
AU3624   AU        0.306118    0.385300    0.769802     0.007504
AU3625   AU        0.309872    0.426334    0.805932     0.007504
PD3626   PD        0.348070    0.385857    0.808187     0.007504
AU3627   AU        0.346587    0.425720    0.768730     0.007504
AU3628   AU        0.385086    0.383202    0.771563     0.007504
AU3629   AU        0.384447    0.424442    0.807094     0.007504
AU3630   AU        0.421376    0.384165    0.810765     0.007504
AU3631   AU        0.424854    0.422404    0.772081     0.007504
PD3632   PD        0.464212    0.385469    0.772282     0.007504
AU3633   AU        0.463572    0.420333    0.809991     0.007504
PD3634   PD        0.501360    0.383277    0.807608     0.007504
AU3635   AU        0.501983    0.423105    0.771701     0.007504
AU3636   AU        0.542724    0.384513    0.770230     0.007504
PD3637   PD        0.538796    0.421096    0.808858     0.007504
PD3638   PD        0.580403    0.382044    0.808021     0.007504
AU3639   AU        0.580719    0.422142    0.772549     0.007504
AU3640   AU        0.618887    0.384752    0.769626     0.007504
PD3641   PD        0.619756    0.419008    0.806961     0.007504
PD3642   PD        0.653699    0.380580    0.805637     0.007504
PD3643   PD        0.656978    0.420853    0.768623     0.007504
AU3644   AU        0.694353    0.381298    0.767417     0.007504
PD3645   PD        0.694765    0.420530    0.804995     0.007504
PD3646   PD        0.731248    0.381331    0.804192     0.007504
AU3647   AU        0.732348    0.423078    0.767478     0.007504
PD3648   PD        0.769251    0.380701    0.764161     0.007504
PD3649   PD        0.771137    0.418464    0.804386     0.007504
PD3650   PD        0.808362    0.416357    0.767004     0.007504
PD3651   PD        0.119878    0.502848    0.770503     0.007504
PD3652   PD        0.156228    0.462589    0.770279     0.007504
AU3653   AU        0.155344    0.501754    0.811750     0.007504
PD3654   PD        0.194398    0.464628    0.808747     0.007504
AU3655   AU        0.191824    0.502478    0.773177     0.007504
PD3656   PD        0.229294    0.465899    0.773950     0.007504
PD3657   PD        0.230553    0.502989    0.807680     0.007504
AU3658   AU        0.269458    0.462186    0.807805     0.007504
PD3659   PD        0.268438    0.502232    0.772541     0.007504
AU3660   AU        0.305980    0.464750    0.769348     0.007504
PD3661   PD        0.308613    0.502083    0.808275     0.007504
AU3662   AU        0.347003    0.463783    0.807450     0.007504
PD3663   PD        0.345152    0.502841    0.769424     0.007504
AU3664   AU        0.383722    0.463508    0.770774     0.007504
PD3665   PD        0.383639    0.501378    0.811262     0.007504
AU3666   AU        0.421127    0.460361    0.810255     0.007504
AU3667   AU        0.422980    0.498894    0.774365     0.007504
AU3668   AU        0.461276    0.459905    0.774785     0.007504
AU3669   AU        0.462100    0.497680    0.811700     0.007504
PD3670   PD        0.500168    0.458521    0.810314     0.007504
AU3671   AU        0.498634    0.498571    0.770490     0.007504
AU3672   AU        0.544938    0.460989    0.770583     0.007504
AU3673   AU        0.540096    0.495653    0.810898     0.007504
PD3674   PD        0.578269    0.460630    0.809706     0.007504
PD3675   PD        0.581191    0.499865    0.769927     0.007504
AU3676   AU        0.618645    0.460006    0.770028     0.007504
PD3677   PD        0.616757    0.496848    0.805552     0.007504
PD3678   PD        0.656205    0.462258    0.805963     0.007504
PD3679   PD        0.658002    0.496088    0.769943     0.007504
AU3680   AU        0.694651    0.458953    0.766198     0.007504
PD3681   PD        0.697019    0.498393    0.805733     0.007504
PD3682   PD        0.734908    0.459839    0.803989     0.007504
PD3683   PD        0.734131    0.497346    0.767147     0.007504
PD3684   PD        0.772925    0.460670    0.766876     0.007504
PD3685   PD        0.771908    0.499210    0.803522     0.007504
PD3686   PD        0.808432    0.498047    0.761769     0.007504
PD3687   PD        0.155337    0.542473    0.771292     0.007504
PD3688   PD        0.191349    0.540015    0.808419     0.007504
PD3689   PD        0.191914    0.579611    0.771795     0.007504
PD3690   PD        0.231517    0.540135    0.772376     0.007504
PD3691   PD        0.231629    0.579178    0.805644     0.007504
PD3692   PD        0.270183    0.542620    0.808328     0.007504
PD3693   PD        0.270290    0.578799    0.772891     0.007504
PD3694   PD        0.306836    0.540397    0.773362     0.007504
PD3695   PD        0.308004    0.579141    0.812297     0.007504
PD3696   PD        0.347675    0.539701    0.810522     0.007504
AU3697   AU        0.343775    0.577362    0.772899     0.007504
AU3698   AU        0.383548    0.538259    0.773303     0.007504
AU3699   AU        0.386109    0.578020    0.812789     0.007504
AU3700   AU        0.424096    0.539141    0.811247     0.007504
PD3701   PD        0.424685    0.577472    0.771496     0.007504
AU3702   AU        0.462257    0.536429    0.771618     0.007504
PD3703   PD        0.463795    0.576752    0.810005     0.007504
PD3704   PD        0.498913    0.534386    0.807748     0.007504
AU3705   AU        0.500679    0.575856    0.772894     0.007504
AU3706   AU        0.540317    0.536655    0.772375     0.007504
PD3707   PD        0.541118    0.574486    0.809473     0.007504
PD3708   PD        0.582337    0.534692    0.807405     0.007504
AU3709   AU        0.576578    0.575134    0.768390     0.007504
PD3710   PD        0.618601    0.535088    0.767720     0.007504
AU3711   AU        0.619856    0.574298    0.805043     0.007504
PD3712   PD        0.656207    0.533587    0.803160     0.007504
AU3713   AU        0.657063    0.575053    0.766475     0.007504
AU3714   AU        0.696302    0.537793    0.767217     0.007504
PD3715   PD        0.695561    0.575947    0.803596     0.007504
PD3716   PD        0.735261    0.538147    0.802402     0.007504
PD3717   PD        0.732543    0.576715    0.766278     0.007504
PD3718   PD        0.772455    0.536111    0.764505     0.007504
PD3719   PD        0.157289    0.618537    0.773749     0.007504
PD3720   PD        0.197834    0.618216    0.809952     0.007504
PD3721   PD        0.193602    0.656583    0.772527     0.007504
PD3722   PD        0.231124    0.619419    0.770598     0.007504
PD3723   PD        0.234954    0.653873    0.807883     0.007504
PD3724   PD        0.269233    0.615394    0.809575     0.007504
PD3725   PD        0.270299    0.655371    0.771727     0.007504
PD3726   PD        0.309012    0.616223    0.773445     0.007504
PD3727   PD        0.309419    0.654280    0.807952     0.007504
PD3728   PD        0.347640    0.617611    0.809359     0.007504
PD3729   PD        0.348516    0.655008    0.773857     0.007504
AU3730   AU        0.387920    0.615728    0.772995     0.007504
PD3731   PD        0.387797    0.654334    0.810303     0.007504
AU3732   AU        0.426294    0.614412    0.811530     0.007504
AU3733   AU        0.427116    0.655322    0.771411     0.007504
AU3734   AU        0.463887    0.616504    0.771566     0.007504
PD3735   PD        0.463992    0.655393    0.807807     0.007504
PD3736   PD        0.502572    0.611432    0.810903     0.007504
PD3737   PD        0.504528    0.653934    0.773997     0.007504
AU3738   AU        0.540167    0.616146    0.773962     0.007504
PD3739   PD        0.542738    0.653908    0.809549     0.007504
AU3740   AU        0.580586    0.613252    0.809525     0.007504
AU3741   AU        0.580512    0.651842    0.772455     0.007504
AU3742   AU        0.616274    0.615874    0.767832     0.007504
PD3743   PD        0.620510    0.650565    0.808308     0.007504
PD3744   PD        0.658855    0.613732    0.806224     0.007504
PD3745   PD        0.654043    0.650379    0.768017     0.007504
PD3746   PD        0.694290    0.612916    0.764020     0.007504
PD3747   PD        0.695297    0.652230    0.802092     0.007504
PD3748   PD        0.733423    0.614794    0.801894     0.007504
PD3749   PD        0.731589    0.651373    0.764085     0.007504
PD3750   PD        0.771965    0.612528    0.764675     0.007504
PD3751   PD        0.231098    0.692592    0.771808     0.007504
PD3752   PD        0.271244    0.693115    0.809143     0.007504
PD3753   PD        0.271955    0.728423    0.769830     0.007504
PD3754   PD        0.311155    0.692809    0.771463     0.007504
PD3755   PD        0.309907    0.730147    0.808599     0.007504
PD3756   PD        0.347556    0.691367    0.807630     0.007504
AU3757   AU        0.349278    0.733792    0.770353     0.007504
PD3758   PD        0.386512    0.693066    0.766443     0.007504
PD3759   PD        0.388701    0.730969    0.807413     0.007504
PD3760   PD        0.426533    0.691410    0.806878     0.007504
AU3761   AU        0.427469    0.730532    0.770099     0.007504
PD3762   PD        0.463358    0.692489    0.770165     0.007504
PD3763   PD        0.465089    0.729293    0.804634     0.007504
PD3764   PD        0.503462    0.692382    0.808800     0.007504
PD3765   PD        0.504669    0.732141    0.770960     0.007504
PD3766   PD        0.541464    0.692679    0.770049     0.007504
PD3767   PD        0.542030    0.731852    0.807405     0.007504
PD3768   PD        0.576492    0.693334    0.805420     0.007504
PD3769   PD        0.580230    0.731672    0.771335     0.007504
AU3770   AU        0.617619    0.690462    0.770890     0.007504
PD3771   PD        0.619734    0.728825    0.806609     0.007504
PD3772   PD        0.656807    0.689335    0.808526     0.007504
PD3773   PD        0.655723    0.727847    0.767109     0.007504
PD3774   PD        0.691706    0.692486    0.768492     0.007504
PD3775   PD        0.307344    0.767629    0.771955     0.007504
PD3776   PD        0.389225    0.769950    0.770360     0.007504
PD3777   PD        0.429185    0.768415    0.806793     0.007504
PD3778   PD        0.428764    0.806455    0.771324     0.007504
PD3779   PD        0.464440    0.769862    0.769604     0.007504
PD3780   PD        0.506367    0.768436    0.807941     0.007504
PD3781   PD        0.502479    0.807984    0.770170     0.007504
PD3782   PD        0.542859    0.770340    0.769810     0.007504
AU3783   AU        0.620515    0.770298    0.772484     0.007504
PD3784   PD        0.422282    0.191610    0.840095     0.007504
PD3785   PD        0.499965    0.193821    0.843741     0.007504
PD3786   PD        0.268837    0.266838    0.841969     0.007504
PD3787   PD        0.344421    0.272504    0.842229     0.007504
PD3788   PD        0.385412    0.232867    0.842037     0.007504
PD3789   PD        0.381982    0.267680    0.880633     0.007504
PD3790   PD        0.425579    0.267732    0.847983     0.007504
PD3791   PD        0.463764    0.230378    0.842655     0.007504
PD3792   PD        0.465556    0.266701    0.881338     0.007504
PD3793   PD        0.500309    0.269278    0.840488     0.007504
PD3794   PD        0.537223    0.232020    0.843409     0.007504
PD3795   PD        0.538676    0.268866    0.881222     0.007504
PD3796   PD        0.576538    0.267067    0.844411     0.007504
PD3797   PD        0.655927    0.267073    0.841112     0.007504
PD3798   PD        0.268674    0.347212    0.841938     0.007504
PD3799   PD        0.305800    0.308574    0.840737     0.007504
AU3800   AU        0.303689    0.348045    0.883410     0.007504
PD3801   PD        0.339135    0.305022    0.880920     0.007504
AU3802   AU        0.343379    0.345053    0.847108     0.007504
PD3803   PD        0.384274    0.307378    0.846390     0.007504
PD3804   PD        0.384994    0.344874    0.881652     0.007504
PD3805   PD        0.422527    0.306971    0.879545     0.007504
PD3806   PD        0.423138    0.343348    0.843745     0.007504
PD3807   PD        0.461381    0.305925    0.843280     0.007504
PD3808   PD        0.461524    0.344111    0.879529     0.007504
PD3809   PD        0.501426    0.304583    0.877783     0.007504
AU3810   AU        0.500028    0.342577    0.841985     0.007504
PD3811   PD        0.541098    0.306184    0.842344     0.007504
PD3812   PD        0.539626    0.344090    0.881045     0.007504
PD3813   PD        0.577820    0.307363    0.880314     0.007504
PD3814   PD        0.577871    0.343536    0.842004     0.007504
PD3815   PD        0.614581    0.306639    0.843440     0.007504
PD3816   PD        0.617472    0.343170    0.878237     0.007504
PD3817   PD        0.655940    0.343884    0.840710     0.007504
PD3818   PD        0.193709    0.425085    0.845950     0.007504
PD3819   PD        0.230757    0.384596    0.841353     0.007504
PD3820   PD        0.269023    0.385649    0.878782     0.007504
PD3821   PD        0.269645    0.422142    0.841433     0.007504
PD3822   PD        0.309267    0.386554    0.842354     0.007504
PD3823   PD        0.307296    0.424064    0.878058     0.007504
PD3824   PD        0.346743    0.385734    0.884704     0.007504
PD3825   PD        0.347991    0.426159    0.843982     0.007504
AU3826   AU        0.381005    0.384788    0.847084     0.007504
PD3827   PD        0.385937    0.423995    0.884504     0.007504
PD3828   PD        0.422344    0.384884    0.880140     0.007504
AU3829   AU        0.421388    0.424304    0.845836     0.007504
AU3830   AU        0.462508    0.380852    0.845138     0.007504
PD3831   PD        0.460801    0.420462    0.881718     0.007504
PD3832   PD        0.500029    0.381178    0.880518     0.007504
PD3833   PD        0.500443    0.419732    0.846014     0.007504
PD3834   PD        0.539924    0.381720    0.840409     0.007504
PD3835   PD        0.538163    0.419789    0.879175     0.007504
PD3836   PD        0.576950    0.381797    0.878624     0.007504
PD3837   PD        0.578304    0.422543    0.844250     0.007504
PD3838   PD        0.616917    0.381886    0.841207     0.007504
PD3839   PD        0.617855    0.418906    0.877926     0.007504
AU3840   AU        0.659002    0.382119    0.880988     0.007504
PD3841   PD        0.656144    0.422137    0.842073     0.007504
PD3842   PD        0.691442    0.384126    0.839452     0.007504
PD3843   PD        0.732999    0.419547    0.843945     0.007504
PD3844   PD        0.193845    0.501740    0.848103     0.007504
PD3845   PD        0.229912    0.462204    0.844232     0.007504
PD3846   PD        0.269388    0.462196    0.877921     0.007504
AU3847   AU        0.271120    0.502064    0.843453     0.007504
PD3848   PD        0.309286    0.463519    0.846497     0.007504
PD3849   PD        0.309474    0.501655    0.881411     0.007504
PD3850   PD        0.346157    0.461076    0.883752     0.007504
PD3851   PD        0.347349    0.500898    0.844803     0.007504
PD3852   PD        0.384586    0.463022    0.848155     0.007504
AU3853   AU        0.385217    0.501881    0.884085     0.007504
AU3854   AU        0.424753    0.460835    0.882108     0.007504
PD3855   PD        0.421419    0.499231    0.845928     0.007504
PD3856   PD        0.462981    0.458246    0.846532     0.007504
PD3857   PD        0.463500    0.497045    0.881611     0.007504
PD3858   PD        0.503885    0.459581    0.881343     0.007504
PD3859   PD        0.503972    0.498037    0.846100     0.007504
PD3860   PD        0.540135    0.458434    0.845633     0.007504
PD3861   PD        0.543057    0.494870    0.881309     0.007504
PD3862   PD        0.580270    0.458790    0.882146     0.007504
PD3863   PD        0.581767    0.498019    0.846062     0.007504
AU3864   AU        0.618921    0.459558    0.843495     0.007504
PD3865   PD        0.619721    0.499952    0.883500     0.007504
PD3866   PD        0.657327    0.462758    0.881787     0.007504
PD3867   PD        0.658314    0.499419    0.840341     0.007504
AU3868   AU        0.696878    0.458344    0.843740     0.007504
PD3869   PD        0.736648    0.501129    0.841722     0.007504
PD3870   PD        0.231367    0.541932    0.847334     0.007504
PD3871   PD        0.270871    0.539274    0.883925     0.007504
PD3872   PD        0.268402    0.577860    0.845263     0.007504
PD3873   PD        0.309581    0.539704    0.846909     0.007504
PD3874   PD        0.306106    0.580211    0.879964     0.007504
PD3875   PD        0.345466    0.542530    0.884066     0.007504
PD3876   PD        0.345019    0.576074    0.847755     0.007504
PD3877   PD        0.385108    0.539834    0.846998     0.007504
PD3878   PD        0.385876    0.575660    0.883317     0.007504
PD3879   PD        0.426142    0.538066    0.883796     0.007504
PD3880   PD        0.424902    0.576247    0.848773     0.007504
PD3881   PD        0.464057    0.537789    0.847390     0.007504
PD3882   PD        0.467214    0.575996    0.886674     0.007504
PD3883   PD        0.501896    0.535220    0.881367     0.007504
PD3884   PD        0.503559    0.573763    0.844850     0.007504
PD3885   PD        0.541849    0.534704    0.844819     0.007504
PD3886   PD        0.538331    0.571620    0.881304     0.007504
PD3887   PD        0.579845    0.535434    0.883421     0.007504
PD3888   PD        0.582643    0.571699    0.844955     0.007504
PD3889   PD        0.619390    0.533653    0.843959     0.007504
PD3890   PD        0.620387    0.571081    0.882490     0.007504
PD3891   PD        0.659504    0.536028    0.879210     0.007504
PD3892   PD        0.657348    0.572443    0.841177     0.007504
PD3893   PD        0.697783    0.537633    0.839960     0.007504
PD3894   PD        0.274340    0.654582    0.844994     0.007504
PD3895   PD        0.310545    0.620010    0.846680     0.007504
PD3896   PD        0.349236    0.616663    0.881607     0.007504
PD3897   PD        0.349864    0.655866    0.844846     0.007504
PD3898   PD        0.387380    0.617214    0.848096     0.007504
PD3899   PD        0.387648    0.655987    0.882712     0.007504
PD3900   PD        0.428852    0.614610    0.883069     0.007504
PD3901   PD        0.425172    0.657031    0.847650     0.007504
PD3902   PD        0.466691    0.613489    0.848138     0.007504
PD3903   PD        0.461196    0.653023    0.882560     0.007504
PD3904   PD        0.506435    0.614100    0.884931     0.007504
AU3905   AU        0.502490    0.653986    0.846726     0.007504
PD3906   PD        0.539990    0.612553    0.845083     0.007504
PD3907   PD        0.544866    0.651165    0.882869     0.007504
PD3908   PD        0.579958    0.613511    0.878166     0.007504
PD3909   PD        0.582330    0.653043    0.845114     0.007504
AU3910   AU        0.619934    0.613094    0.845572     0.007504
PD3911   PD        0.661830    0.650764    0.844380     0.007504
PD3912   PD        0.387579    0.694891    0.845601     0.007504
PD3913   PD        0.427994    0.729885    0.840720     0.007504
PD3914   PD        0.467254    0.693516    0.843930     0.007504
PD3915   PD        0.505446    0.729641    0.845287     0.007504
PD3916   PD        0.545010    0.693970    0.844127     0.007504
PD3917   PD        0.423656    0.423591    0.918329     0.007504
PD3918   PD        0.463546    0.383971    0.917768     0.007504
PD3919   PD        0.503553    0.418157    0.914830     0.007504
PD3920   PD        0.385172    0.463745    0.920133     0.007504
PD3921   PD        0.428245    0.499662    0.921358     0.007504
PD3922   PD        0.465661    0.456777    0.919779     0.007504
PD3923   PD        0.504089    0.496941    0.918648     0.007504
PD3924   PD        0.542347    0.456505    0.918723     0.007504
PD3925   PD        0.465251    0.537105    0.922037     0.007504
